xflr5 v6.32

 Calculated polar for: finalfoil mod1

 1 1 Reynolds number fixed          Mach number fixed         

 xtrf =   1.000 (top)        1.000 (bottom)
 Mach =   0.000     Re =     0.200 e 6     Ncrit =   9.000

  alpha     CL        CD       CDp       Cm    Top Xtr Bot Xtr   Cpmin    Chinge    XCp    
 ------- -------- --------- --------- -------- ------- ------- -------- --------- ---------
  -7.700  -0.7269   0.04030   0.03445  -0.0345  0.9880  0.0344  -4.1320   0.0000   0.1947
  -7.600  -0.7175   0.03895   0.03313  -0.0348  0.9871  0.0338  -4.0778   0.0000   0.1937
  -7.500  -0.7104   0.03710   0.03112  -0.0346  0.9859  0.0324  -4.0984   0.0000   0.1936
  -7.400  -0.7040   0.03404   0.02746  -0.0337  0.9848  0.0296  -4.2947   0.0000   0.1944
  -7.300  -0.6946   0.03279   0.02606  -0.0337  0.9838  0.0293  -4.2758   0.0000   0.1938
  -7.200  -0.6853   0.03159   0.02467  -0.0335  0.9826  0.0290  -4.2620   0.0000   0.1934
  -7.100  -0.6746   0.03044   0.02334  -0.0336  0.9817  0.0288  -4.2421   0.0000   0.1925
  -7.000  -0.6630   0.02939   0.02211  -0.0338  0.9810  0.0287  -4.2141   0.0000   0.1913
  -6.900  -0.6534   0.02851   0.02109  -0.0336  0.9798  0.0288  -4.1826   0.0000   0.1909
  -6.800  -0.6424   0.02768   0.02011  -0.0337  0.9788  0.0289  -4.1427   0.0000   0.1900
  -6.700  -0.6304   0.02691   0.01920  -0.0339  0.9780  0.0292  -4.0959   0.0000   0.1887
  -6.600  -0.6176   0.02627   0.01839  -0.0342  0.9773  0.0298  -4.0421   0.0000   0.1871
  -6.500  -0.6075   0.02577   0.01772  -0.0341  0.9759  0.0305  -3.9924   0.0000   0.1865
  -6.400  -0.5964   0.02515   0.01717  -0.0344  0.9750  0.0313  -3.8960   0.0000   0.1849
  -6.300  -0.5842   0.02473   0.01676  -0.0348  0.9741  0.0323  -3.8018   0.0000   0.1830
  -6.200  -0.5712   0.02424   0.01621  -0.0353  0.9734  0.0331  -3.7262   0.0000   0.1809
  -6.100  -0.5604   0.02376   0.01565  -0.0352  0.9722  0.0338  -3.6668   0.0000   0.1798
  -6.000  -0.5494   0.02332   0.01511  -0.0352  0.9710  0.0345  -3.6091   0.0000   0.1787
  -5.900  -0.5379   0.02272   0.01455  -0.0354  0.9701  0.0353  -3.5343   0.0000   0.1769
  -5.800  -0.5256   0.02228   0.01415  -0.0359  0.9693  0.0365  -3.4468   0.0000   0.1745
  -5.700  -0.5137   0.02190   0.01375  -0.0361  0.9683  0.0378  -3.3690   0.0000   0.1724
  -5.600  -0.5040   0.02159   0.01336  -0.0359  0.9667  0.0393  -3.3066   0.0000   0.1715
  -5.500  -0.4932   0.02114   0.01301  -0.0362  0.9656  0.0412  -3.2172   0.0000   0.1694
  -5.400  -0.4802   0.02089   0.01269  -0.0367  0.9646  0.0441  -3.1473   0.0000   0.1664
  -5.300  -0.4693   0.02048   0.01237  -0.0370  0.9635  0.0468  -3.0753   0.0000   0.1640
  -5.200  -0.4602   0.02017   0.01203  -0.0368  0.9618  0.0498  -3.0235   0.0000   0.1630
  -5.100  -0.4489   0.01982   0.01172  -0.0371  0.9606  0.0536  -2.9570   0.0000   0.1603
  -5.000  -0.4365   0.01949   0.01142  -0.0376  0.9597  0.0594  -2.8856   0.0000   0.1568
  -4.900  -0.4251   0.01914   0.01111  -0.0379  0.9586  0.0667  -2.8190   0.0000   0.1537
  -4.800  -0.4168   0.01880   0.01084  -0.0376  0.9567  0.0751  -2.7605   0.0000   0.1527
  -4.700  -0.4057   0.01839   0.01053  -0.0379  0.9555  0.0912  -2.6939   0.0000   0.1494
  -4.600  -0.3937   0.01786   0.01021  -0.0385  0.9545  0.1204  -2.6213   0.0000   0.1450
  -4.500  -0.3812   0.01730   0.00994  -0.0394  0.9538  0.1681  -2.5388   0.0000   0.1396
  -4.400  -0.3744   0.01687   0.00976  -0.0390  0.9515  0.2140  -2.4728   0.0000   0.1388
  -4.300  -0.3642   0.01630   0.00954  -0.0395  0.9503  0.2838  -2.3917   0.0000   0.1346
  -4.200  -0.3537   0.01560   0.00934  -0.0401  0.9493  0.3852  -2.3083   0.0000   0.1297
  -4.100  -0.3432   0.01499   0.00928  -0.0404  0.9485  0.4986  -2.2228   0.0000   0.1253
  -4.000  -0.3361   0.01477   0.00939  -0.0396  0.9466  0.5696  -2.1502   0.0000   0.1252
  -3.900  -0.3269   0.01474   0.00954  -0.0391  0.9449  0.6189  -2.0697   0.0000   0.1236
  -3.800  -0.3154   0.01481   0.00969  -0.0389  0.9437  0.6536  -1.9808   0.0000   0.1196
  -3.700  -0.3025   0.01493   0.00984  -0.0391  0.9427  0.6793  -1.8876   0.0000   0.1138
  -3.600  -0.2949   0.01507   0.00999  -0.0382  0.9404  0.6953  -1.8154   0.0000   0.1134
  -3.500  -0.2845   0.01522   0.01013  -0.0379  0.9387  0.7104  -1.7335   0.0000   0.1097
  -3.400  -0.2720   0.01537   0.01025  -0.0380  0.9374  0.7241  -1.6450   0.0000   0.1031
  -3.300  -0.2585   0.01554   0.01039  -0.0383  0.9364  0.7356  -1.5543   0.0000   0.0946
  -3.200  -0.2523   0.01571   0.01055  -0.0372  0.9337  0.7427  -1.4973   0.0000   0.0957
  -3.100  -0.2413   0.01587   0.01069  -0.0369  0.9320  0.7509  -1.4253   0.0000   0.0898
  -3.000  -0.2284   0.01603   0.01080  -0.0371  0.9308  0.7591  -1.3485   0.0000   0.0803
  -2.900  -0.2157   0.01618   0.01091  -0.0372  0.9297  0.7664  -1.2734   0.0000   0.0699
  -2.800  -0.2100   0.01632   0.01105  -0.0360  0.9269  0.7714  -1.2206   0.0000   0.0711
  -2.700  -0.1982   0.01643   0.01112  -0.0361  0.9253  0.7785  -1.1504   0.0000   0.0603
  -2.600  -0.1857   0.01657   0.01125  -0.0361  0.9242  0.7830  -1.0785   0.0000   0.0481
  -2.500  -0.1742   0.01667   0.01130  -0.0361  0.9227  0.7893  -1.0113   0.0000   0.0350
  -2.400  -0.1677   0.01679   0.01143  -0.0350  0.9200  0.7933  -0.9590   0.0000   0.0336
  -2.300  -0.1555   0.01687   0.01145  -0.0352  0.9185  0.7994  -0.8917   0.0000   0.0157
  -2.200  -0.1430   0.01697   0.01154  -0.0352  0.9174  0.8031  -0.8238   0.0000  -0.0042
  -2.100  -0.1324   0.01704   0.01158  -0.0350  0.9156  0.8086  -0.7670   0.0000  -0.0232
  -2.000  -0.1254   0.01712   0.01166  -0.0341  0.9129  0.8122  -0.7263   0.0000  -0.0304
  -1.900  -0.1136   0.01719   0.01170  -0.0341  0.9115  0.8167  -0.6782   0.0000  -0.0591
  -1.800  -0.1004   0.01723   0.01173  -0.0343  0.9104  0.8214  -0.6330   0.0000  -0.1018
  -1.700  -0.0871   0.01732   0.01180  -0.0344  0.9095  0.8265  -0.5896   0.0000  -0.1560
  -1.600  -0.0848   0.01740   0.01188  -0.0326  0.9056  0.8318  -0.5682   0.0000  -0.1450
  -1.500  -0.0740   0.01748   0.01194  -0.0323  0.9041  0.8380  -0.5357   0.0000  -0.1972
  -1.400  -0.0623   0.01754   0.01201  -0.0319  0.9031  0.8433  -0.5060   0.0000  -0.2754
  -1.200  -0.0480   0.01765   0.01210  -0.0300  0.8980  0.8533  -0.4664   0.0000  -0.3887
  -1.100  -0.0351   0.01764   0.01207  -0.0303  0.8966  0.8579  -0.4412   0.0000  -0.6305
  -1.000  -0.0210   0.01762   0.01204  -0.0307  0.8957  0.8604  -0.4173   0.0000  -1.2377
  -0.900  -0.0082   0.01761   0.01201  -0.0310  0.8944  0.8629  -0.3971   0.0000  -3.5988
  -0.800  -0.0036   0.01762   0.01201  -0.0299  0.8905  0.8667  -0.3852   0.0000  -8.2534
  -0.700   0.0098   0.01759   0.01196  -0.0303  0.8892  0.8691  -0.3658   0.0000   3.3766
  -0.600   0.0243   0.01755   0.01191  -0.0308  0.8882  0.8712  -0.3599   0.0000   1.5353
  -0.500   0.0399   0.01751   0.01185  -0.0317  0.8874  0.8735  -0.3683   0.0000   1.0519
  -0.400   0.0428   0.01753   0.01186  -0.0303  0.8831  0.8772  -0.3706   0.0000   0.9632
  -0.300   0.0560   0.01749   0.01181  -0.0306  0.8816  0.8790  -0.3783   0.0000   0.8002
  -0.200   0.0709   0.01743   0.01174  -0.0313  0.8806  0.8810  -0.3868   0.0000   0.6928
  -0.100   0.0872   0.01737   0.01166  -0.0323  0.8798  0.8832  -0.3960   0.0000   0.6210
   0.100   0.1037   0.01733   0.01162  -0.0312  0.8740  0.8883  -0.4069   0.0000   0.5507
   0.200   0.1190   0.01726   0.01154  -0.0320  0.8729  0.8903  -0.4165   0.0000   0.5179
   0.300   0.1353   0.01718   0.01145  -0.0330  0.8721  0.8924  -0.4267   0.0000   0.4925
   0.400   0.1516   0.01708   0.01134  -0.0340  0.8714  0.8943  -0.4368   0.0000   0.4725
   0.500   0.1528   0.01713   0.01140  -0.0321  0.8663  0.8970  -0.4392   0.0000   0.4582
   0.600   0.1677   0.01704   0.01131  -0.0327  0.8651  0.8990  -0.4492   0.0000   0.4433
   0.700   0.1831   0.01694   0.01119  -0.0335  0.8642  0.9010  -0.4595   0.0000   0.4310
   0.800   0.1987   0.01682   0.01107  -0.0343  0.8634  0.9028  -0.4705   0.0000   0.4204
   1.000   0.2158   0.01676   0.01103  -0.0333  0.8571  0.9075  -0.4852   0.0000   0.4016
   1.100   0.2308   0.01663   0.01090  -0.0340  0.8560  0.9096  -0.4969   0.0000   0.3945
   1.200   0.2465   0.01649   0.01076  -0.0347  0.8552  0.9110  -0.5091   0.0000   0.3879
   1.400   0.2648   0.01639   0.01069  -0.0339  0.8489  0.9155  -0.5268   0.0000   0.3749
   1.500   0.2796   0.01625   0.01054  -0.0345  0.8477  0.9175  -0.5397   0.0000   0.3703
   1.600   0.2954   0.01609   0.01039  -0.0352  0.8468  0.9187  -0.5534   0.0000   0.3660
   1.700   0.3114   0.01593   0.01024  -0.0360  0.8460  0.9200  -0.5674   0.0000   0.3622
   1.800   0.3146   0.01597   0.01030  -0.0345  0.8405  0.9232  -0.5740   0.0000   0.3564
   1.900   0.3293   0.01580   0.01013  -0.0351  0.8392  0.9250  -0.5895   0.0000   0.3532
   2.000   0.3454   0.01562   0.00998  -0.0358  0.8382  0.9262  -0.6066   0.0000   0.3503
   2.200   0.3657   0.01547   0.00985  -0.0354  0.8317  0.9306  -0.6345   0.0000   0.3430
   2.300   0.3806   0.01528   0.00968  -0.0359  0.8303  0.9322  -0.6528   0.0000   0.3407
   2.400   0.3972   0.01508   0.00949  -0.0367  0.8291  0.9333  -0.6732   0.0000   0.3387
   2.600   0.4187   0.01488   0.00933  -0.0364  0.8224  0.9375  -0.7066   0.0000   0.3331
   2.700   0.4343   0.01467   0.00914  -0.0371  0.8208  0.9389  -0.7287   0.0000   0.3314
   2.800   0.4518   0.01444   0.00893  -0.0381  0.8196  0.9398  -0.7539   0.0000   0.3302
   2.900   0.4591   0.01443   0.00894  -0.0374  0.8142  0.9424  -0.7695   0.0000   0.3272
   3.000   0.4741   0.01422   0.00875  -0.0379  0.8121  0.9440  -0.7932   0.0000   0.3258
   3.100   0.4908   0.01398   0.00852  -0.0387  0.8105  0.9452  -0.8211   0.0000   0.3247
   3.200   0.5004   0.01394   0.00852  -0.0384  0.8052  0.9472  -0.8419   0.0000   0.3225
   3.300   0.5163   0.01372   0.00832  -0.0392  0.8027  0.9484  -0.8712   0.0000   0.3214
   3.400   0.5309   0.01353   0.00815  -0.0396  0.7997  0.9500  -0.8993   0.0000   0.3202
   3.500   0.5421   0.01342   0.00808  -0.0396  0.7947  0.9520  -0.9253   0.0000   0.3184
   3.600   0.5596   0.01318   0.00785  -0.0405  0.7920  0.9527  -0.9605   0.0000   0.3178
   3.700   0.5702   0.01310   0.00780  -0.0404  0.7862  0.9549  -0.9881   0.0000   0.3162
   3.800   0.5854   0.01288   0.00760  -0.0410  0.7827  0.9563  -1.0249   0.0000   0.3152
   3.900   0.5978   0.01279   0.00754  -0.0411  0.7767  0.9580  -1.0644   0.0000   0.3140
   4.000   0.6142   0.01259   0.00737  -0.0420  0.7726  0.9589  -1.1132   0.0000   0.3135
   4.100   0.6252   0.01251   0.00732  -0.0419  0.7660  0.9611  -1.1626   0.0000   0.3121
   4.200   0.6400   0.01235   0.00718  -0.0425  0.7609  0.9625  -1.2245   0.0000   0.3113
   4.300   0.6538   0.01225   0.00711  -0.0430  0.7539  0.9639  -1.2844   0.0000   0.3106
   4.400   0.6667   0.01216   0.00705  -0.0432  0.7467  0.9657  -1.3426   0.0000   0.3096
   4.500   0.6803   0.01205   0.00695  -0.0436  0.7395  0.9674  -1.4040   0.0000   0.3088
   4.600   0.6957   0.01194   0.00685  -0.0444  0.7317  0.9685  -1.4764   0.0000   0.3084
   4.700   0.7088   0.01187   0.00682  -0.0447  0.7222  0.9702  -1.5432   0.0000   0.3076
   4.800   0.7216   0.01180   0.00677  -0.0450  0.7121  0.9721  -1.6101   0.0000   0.3068
   4.900   0.7361   0.01174   0.00671  -0.0456  0.7007  0.9733  -1.6825   0.0000   0.3063
   5.000   0.7490   0.01171   0.00668  -0.0459  0.6881  0.9751  -1.7537   0.0000   0.3056
   5.100   0.7620   0.01168   0.00666  -0.0463  0.6738  0.9768  -1.8301   0.0000   0.3049
   5.200   0.7760   0.01167   0.00661  -0.0468  0.6578  0.9781  -1.9108   0.0000   0.3044
   5.300   0.7883   0.01170   0.00661  -0.0470  0.6395  0.9801  -1.9867   0.0000   0.3036
   5.400   0.8019   0.01176   0.00661  -0.0475  0.6182  0.9814  -2.0682   0.0000   0.3032
   5.500   0.8140   0.01186   0.00663  -0.0477  0.5944  0.9832  -2.1452   0.0000   0.3024
   5.600   0.8258   0.01201   0.00667  -0.0480  0.5678  0.9850  -2.2282   0.0000   0.3017
   5.700   0.8363   0.01221   0.00674  -0.0480  0.5392  0.9872  -2.3088   0.0000   0.3009
   5.800   0.8466   0.01247   0.00685  -0.0480  0.5089  0.9894  -2.3890   0.0000   0.3002
   5.900   0.8563   0.01277   0.00700  -0.0480  0.4773  0.9919  -2.4677   0.0000   0.2994
   6.000   0.8656   0.01309   0.00717  -0.0480  0.4456  0.9946  -2.5454   0.0000   0.2987
   6.100   0.8748   0.01345   0.00738  -0.0480  0.4137  0.9974  -2.6230   0.0000   0.2980
   6.200   0.8822   0.01381   0.00759  -0.0477  0.3835  1.0000  -2.6941   0.0000   0.2971
   6.300   0.8800   0.01398   0.00769  -0.0454  0.3657  1.0000  -2.7282   0.0000   0.2945
   6.400   0.8768   0.01416   0.00778  -0.0429  0.3498  1.0000  -2.7584   0.0000   0.2917
   6.500   0.8736   0.01431   0.00787  -0.0404  0.3340  1.0000  -2.7888   0.0000   0.2889
   6.600   0.8706   0.01448   0.00796  -0.0380  0.3184  1.0000  -2.8200   0.0000   0.2862
   6.700   0.8704   0.01470   0.00809  -0.0362  0.2995  1.0000  -2.8619   0.0000   0.2840
   6.800   0.8721   0.01499   0.00827  -0.0347  0.2787  1.0000  -2.9118   0.0000   0.2822
   6.900   0.8751   0.01532   0.00848  -0.0336  0.2570  1.0000  -2.9665   0.0000   0.2806
   7.000   0.8787   0.01567   0.00871  -0.0326  0.2356  1.0000  -3.0242   0.0000   0.2792
   7.100   0.8829   0.01603   0.00895  -0.0317  0.2151  1.0000  -3.0836   0.0000   0.2779
   7.300   0.8916   0.01677   0.00947  -0.0299  0.1772  1.0000  -3.2043   0.0000   0.2753
   7.400   0.8962   0.01716   0.00977  -0.0291  0.1595  1.0000  -3.2655   0.0000   0.2741
   7.500   0.9009   0.01758   0.01007  -0.0283  0.1430  1.0000  -3.3263   0.0000   0.2730
   7.600   0.9056   0.01801   0.01040  -0.0275  0.1276  1.0000  -3.3865   0.0000   0.2718
   7.700   0.9104   0.01846   0.01075  -0.0268  0.1132  1.0000  -3.4501   0.0000   0.2707
   7.800   0.9151   0.01892   0.01113  -0.0260  0.1002  1.0000  -3.5146   0.0000   0.2696
   7.900   0.9197   0.01941   0.01153  -0.0251  0.0892  1.0000  -3.5765   0.0000   0.2684
   8.000   0.9242   0.01990   0.01196  -0.0243  0.0802  1.0000  -3.6374   0.0000   0.2673
   8.100   0.9286   0.02041   0.01239  -0.0235  0.0732  1.0000  -3.6974   0.0000   0.2661
   8.200   0.9333   0.02089   0.01284  -0.0227  0.0673  1.0000  -3.7582   0.0000   0.2650
   8.300   0.9384   0.02136   0.01328  -0.0220  0.0623  1.0000  -3.8200   0.0000   0.2640
   8.400   0.9435   0.02183   0.01374  -0.0212  0.0582  1.0000  -3.8815   0.0000   0.2629
   8.500   0.9478   0.02235   0.01420  -0.0204  0.0553  1.0000  -3.9437   0.0000   0.2619
   8.600   0.9536   0.02279   0.01467  -0.0197  0.0522  1.0000  -4.0058   0.0000   0.2609
   8.700   0.9577   0.02335   0.01517  -0.0189  0.0503  1.0000  -4.0661   0.0000   0.2599
   8.800   0.9640   0.02378   0.01565  -0.0183  0.0479  1.0000  -4.1284   0.0000   0.2590
   8.900   0.9692   0.02427   0.01611  -0.0177  0.0461  1.0000  -4.1954   0.0000   0.2581
   9.000   0.9749   0.02478   0.01663  -0.0170  0.0444  1.0000  -4.2578   0.0000   0.2572
   9.100   0.9812   0.02522   0.01709  -0.0165  0.0426  1.0000  -4.3260   0.0000   0.2564
   9.200   0.9868   0.02573   0.01755  -0.0159  0.0412  1.0000  -4.3979   0.0000   0.2556
   9.300   0.9932   0.02627   0.01811  -0.0154  0.0399  1.0000  -4.4612   0.0000   0.2548
   9.400   1.0001   0.02676   0.01864  -0.0149  0.0386  1.0000  -4.5255   0.0000   0.2541
   9.500   1.0070   0.02726   0.01916  -0.0144  0.0376  1.0000  -4.5997   0.0000   0.2534
   9.600   1.0144   0.02786   0.01968  -0.0141  0.0367  1.0000  -4.6873   0.0000   0.2529
   9.700   1.0228   0.02848   0.02033  -0.0138  0.0358  1.0000  -4.7678   0.0000   0.2523
   9.800   1.0307   0.02900   0.02092  -0.0134  0.0347  1.0000  -4.8458   0.0000   0.2517
   9.900   1.0385   0.02950   0.02146  -0.0131  0.0337  1.0000  -4.9318   0.0000   0.2512
  10.000   1.0464   0.03001   0.02195  -0.0128  0.0328  1.0000  -5.0275   0.0000   0.2507
  10.100   1.0572   0.03076   0.02263  -0.0130  0.0319  1.0000  -5.1323   0.0000   0.2506
  10.200   1.0641   0.03130   0.02331  -0.0124  0.0312  1.0000  -5.2007   0.0000   0.2499
  10.300   1.0729   0.03194   0.02403  -0.0122  0.0305  1.0000  -5.2804   0.0000   0.2494
  10.400   1.0824   0.03260   0.02474  -0.0121  0.0298  1.0000  -5.3672   0.0000   0.2491
  10.500   1.0923   0.03327   0.02543  -0.0120  0.0293  1.0000  -5.4611   0.0000   0.2489
  10.600   1.1031   0.03400   0.02616  -0.0122  0.0288  1.0000  -5.5625   0.0000   0.2488
  10.700   1.1222   0.03528   0.02737  -0.0136  0.0281  1.0000  -5.6980   0.0000   0.2497
  10.800   1.1274   0.03606   0.02832  -0.0128  0.0279  1.0000  -5.7443   0.0000   0.2489
  10.900   1.1334   0.03696   0.02938  -0.0122  0.0276  1.0000  -5.7915   0.0000   0.2481
  11.000   1.1387   0.03789   0.03048  -0.0115  0.0274  1.0000  -5.8353   0.0000   0.2473
  11.100   1.1431   0.03883   0.03157  -0.0107  0.0271  1.0000  -5.8765   0.0000   0.2465
  11.200   1.1467   0.03975   0.03263  -0.0098  0.0267  1.0000  -5.9179   0.0000   0.2455
  11.300   1.1498   0.04063   0.03364  -0.0090  0.0264  1.0000  -5.9629   0.0000   0.2446
  11.400   1.1530   0.04145   0.03456  -0.0082  0.0260  1.0000  -6.0158   0.0000   0.2438
  11.500   1.1569   0.04219   0.03536  -0.0075  0.0256  1.0000  -6.0830   0.0000   0.2431
  11.600   1.1634   0.04284   0.03600  -0.0072  0.0252  1.0000  -6.1803   0.0000   0.2427
  11.700   1.1769   0.04383   0.03688  -0.0080  0.0246  1.0000  -6.3222   0.0000   0.2431
  11.800   1.1826   0.04533   0.03847  -0.0078  0.0244  1.0000  -6.3738   0.0000   0.2428
  11.900   1.1810   0.04638   0.03967  -0.0064  0.0243  1.0000  -6.3826   0.0000   0.2415
  12.000   1.1791   0.04748   0.04092  -0.0051  0.0243  1.0000  -6.3895   0.0000   0.2402
  12.100   1.1770   0.04863   0.04221  -0.0038  0.0243  1.0000  -6.4029   0.0000   0.2390
  12.200   1.1744   0.04982   0.04354  -0.0025  0.0242  1.0000  -6.4149   0.0000   0.2377
  12.300   1.1715   0.05104   0.04490  -0.0013  0.0242  1.0000  -6.4247   0.0000   0.2366
  12.400   1.1684   0.05231   0.04629  -0.0001  0.0242  1.0000  -6.4327   0.0000   0.2354
  12.500   1.1649   0.05361   0.04771   0.0010  0.0242  1.0000  -6.4390   0.0000   0.2343
  12.600   1.1612   0.05494   0.04916   0.0021  0.0242  1.0000  -6.4439   0.0000   0.2332
  12.700   1.1573   0.05632   0.05064   0.0031  0.0243  1.0000  -6.4477   0.0000   0.2321
  12.800   1.1533   0.05772   0.05215   0.0041  0.0243  1.0000  -6.4508   0.0000   0.2312
  12.900   1.1492   0.05917   0.05370   0.0050  0.0243  1.0000  -6.4536   0.0000   0.2302
  13.000   1.1452   0.06066   0.05528   0.0058  0.0243  1.0000  -6.4569   0.0000   0.2294
  13.100   1.1415   0.06220   0.05690   0.0065  0.0244  1.0000  -6.4615   0.0000   0.2286
  13.200   1.1385   0.06381   0.05858   0.0071  0.0244  1.0000  -6.4694   0.0000   0.2279
  13.300   1.1291   0.06505   0.05997   0.0080  0.0245  1.0000  -6.4377   0.0000   0.2268
  13.500   1.0517   0.07304   0.06877   0.0096  0.0261  1.0000  -5.8006   0.0000   0.2242
  13.600   1.0399   0.07551   0.07135   0.0093  0.0263  1.0000  -5.7348   0.0000   0.2242
  13.700   1.0288   0.07801   0.07395   0.0088  0.0264  1.0000  -5.6751   0.0000   0.2244
  13.800   1.0181   0.08056   0.07659   0.0080  0.0266  1.0000  -5.6187   0.0000   0.2248
  13.900   1.0077   0.08318   0.07929   0.0071  0.0267  1.0000  -5.5638   0.0000   0.2254
  14.000   0.9975   0.08587   0.08205   0.0060  0.0269  1.0000  -5.5096   0.0000   0.2263
  14.100   0.9876   0.08864   0.08489   0.0048  0.0270  1.0000  -5.4553   0.0000   0.2273
  14.200   0.9778   0.09151   0.08783   0.0033  0.0271  1.0000  -5.4004   0.0000   0.2285
  14.300   0.9683   0.09448   0.09086   0.0017  0.0272  1.0000  -5.3449   0.0000   0.2299
  14.400   0.9592   0.09755   0.09399  -0.0000  0.0274  1.0000  -5.2889   0.0000   0.2315
  14.500   0.9505   0.10069   0.09718  -0.0019  0.0275  1.0000  -5.2333   0.0000   0.2333
  14.600   0.9424   0.10386   0.10039  -0.0038  0.0276  1.0000  -5.1796   0.0000   0.2352
  14.700   0.9352   0.10696   0.10352  -0.0056  0.0277  1.0000  -5.1308   0.0000   0.2370
  14.800   0.9292   0.10989   0.10649  -0.0073  0.0278  1.0000  -5.0914   0.0000   0.2387
  14.900   0.9251   0.11249   0.10910  -0.0086  0.0279  1.0000  -5.0692   0.0000   0.2400
  15.000   0.9241   0.11443   0.11103  -0.0093  0.0280  1.0000  -5.0788   0.0000   0.2406


