xflr5 v6.32

 Calculated polar for: finalfoil mod1

 1 1 Reynolds number fixed          Mach number fixed         

 xtrf =   1.000 (top)        1.000 (bottom)
 Mach =   0.000     Re =    65.000 e 6     Ncrit =   9.000

  alpha     CL        CD       CDp       Cm    Top Xtr Bot Xtr   Cpmin    Chinge    XCp    
 ------- -------- --------- --------- -------- ------- ------- -------- --------- ---------
 -14.500  -1.3351   0.01023   0.00673  -0.0536  0.8367  0.0013  -19.9152   0.0000   0.1930
 -14.400  -1.3251   0.01013   0.00662  -0.0536  0.8359  0.0013  -19.6697   0.0000   0.1929
 -14.300  -1.3151   0.01003   0.00652  -0.0535  0.8345  0.0013  -19.4255   0.0000   0.1928
 -14.200  -1.3051   0.00993   0.00642  -0.0535  0.8327  0.0013  -19.1827   0.0000   0.1926
 -14.100  -1.2951   0.00983   0.00632  -0.0534  0.8306  0.0013  -18.9411   0.0000   0.1925
 -14.000  -1.2850   0.00974   0.00622  -0.0534  0.8284  0.0013  -18.6999   0.0000   0.1924
 -13.900  -1.2749   0.00964   0.00612  -0.0534  0.8277  0.0013  -18.4592   0.0000   0.1922
 -13.800  -1.2647   0.00954   0.00603  -0.0534  0.8268  0.0013  -18.2196   0.0000   0.1921
 -13.700  -1.2545   0.00945   0.00593  -0.0533  0.8254  0.0013  -17.9814   0.0000   0.1919
 -13.600  -1.2443   0.00936   0.00584  -0.0533  0.8238  0.0013  -17.7446   0.0000   0.1917
 -13.500  -1.2341   0.00927   0.00575  -0.0533  0.8218  0.0013  -17.5091   0.0000   0.1916
 -13.400  -1.2238   0.00918   0.00566  -0.0533  0.8196  0.0013  -17.2743   0.0000   0.1914
 -13.300  -1.2134   0.00909   0.00556  -0.0533  0.8189  0.0013  -17.0400   0.0000   0.1911
 -13.200  -1.2031   0.00900   0.00548  -0.0533  0.8182  0.0013  -16.8068   0.0000   0.1909
 -13.100  -1.1927   0.00892   0.00539  -0.0533  0.8169  0.0013  -16.5752   0.0000   0.1907
 -13.000  -1.1823   0.00883   0.00530  -0.0533  0.8150  0.0013  -16.3452   0.0000   0.1904
 -12.900  -1.1720   0.00875   0.00522  -0.0533  0.8126  0.0013  -16.1167   0.0000   0.1902
 -12.800  -1.1616   0.00867   0.00513  -0.0533  0.8101  0.0013  -15.8889   0.0000   0.1899
 -12.700  -1.1511   0.00858   0.00505  -0.0533  0.8092  0.0013  -15.6618   0.0000   0.1896
 -12.600  -1.1406   0.00850   0.00497  -0.0533  0.8078  0.0013  -15.4361   0.0000   0.1893
 -12.500  -1.1301   0.00843   0.00489  -0.0533  0.8057  0.0013  -15.2122   0.0000   0.1891
 -12.400  -1.1196   0.00835   0.00481  -0.0533  0.8030  0.0013  -14.9899   0.0000   0.1888
 -12.300  -1.1091   0.00827   0.00473  -0.0533  0.8007  0.0013  -14.7682   0.0000   0.1884
 -12.200  -1.0985   0.00819   0.00465  -0.0534  0.7997  0.0013  -14.5472   0.0000   0.1881
 -12.100  -1.0879   0.00812   0.00457  -0.0534  0.7981  0.0013  -14.3294   0.0000   0.1877
 -12.000  -1.0774   0.00804   0.00449  -0.0534  0.7956  0.0014  -14.1173   0.0000   0.1874
 -11.900  -1.0669   0.00797   0.00441  -0.0534  0.7926  0.0014  -13.9043   0.0000   0.1870
 -11.800  -1.0563   0.00789   0.00433  -0.0534  0.7909  0.0015  -13.6908   0.0000   0.1866
 -11.700  -1.0456   0.00781   0.00426  -0.0534  0.7896  0.0016  -13.4781   0.0000   0.1862
 -11.600  -1.0350   0.00774   0.00418  -0.0535  0.7872  0.0016  -13.2672   0.0000   0.1858
 -11.500  -1.0244   0.00767   0.00411  -0.0535  0.7841  0.0017  -13.0578   0.0000   0.1854
 -11.400  -1.0137   0.00760   0.00404  -0.0535  0.7815  0.0017  -12.8489   0.0000   0.1849
 -11.300  -1.0030   0.00753   0.00396  -0.0535  0.7802  0.0017  -12.6408   0.0000   0.1845
 -11.200  -0.9923   0.00746   0.00389  -0.0536  0.7775  0.0018  -12.4349   0.0000   0.1840
 -11.100  -0.9817   0.00739   0.00382  -0.0536  0.7735  0.0018  -12.2310   0.0000   0.1835
 -11.000  -0.9710   0.00732   0.00375  -0.0536  0.7711  0.0019  -12.0273   0.0000   0.1830
 -10.900  -0.9603   0.00725   0.00368  -0.0536  0.7686  0.0019  -11.8254   0.0000   0.1825
 -10.800  -0.9497   0.00719   0.00361  -0.0536  0.7646  0.0020  -11.6257   0.0000   0.1820
 -10.700  -0.9389   0.00712   0.00354  -0.0537  0.7616  0.0020  -11.4264   0.0000   0.1814
 -10.600  -0.9282   0.00705   0.00347  -0.0537  0.7591  0.0021  -11.2284   0.0000   0.1808
 -10.500  -0.9176   0.00699   0.00341  -0.0537  0.7542  0.0021  -11.0330   0.0000   0.1803
 -10.400  -0.9068   0.00693   0.00334  -0.0538  0.7510  0.0021  -10.8376   0.0000   0.1796
 -10.300  -0.8961   0.00687   0.00327  -0.0538  0.7475  0.0022  -10.6439   0.0000   0.1790
 -10.200  -0.8853   0.00681   0.00321  -0.0538  0.7428  0.0022  -10.4517   0.0000   0.1784
 -10.100  -0.8744   0.00675   0.00315  -0.0539  0.7407  0.0023  -10.2595   0.0000   0.1777
 -10.000  -0.8636   0.00670   0.00309  -0.0539  0.7371  0.0023  -10.0694   0.0000   0.1770
  -9.900  -0.8528   0.00665   0.00304  -0.0539  0.7324  0.0023  -9.8811   0.0000   0.1762
  -9.800  -0.8419   0.00659   0.00298  -0.0540  0.7301  0.0023  -9.6931   0.0000   0.1754
  -9.700  -0.8310   0.00655   0.00293  -0.0540  0.7256  0.0023  -9.5078   0.0000   0.1747
  -9.600  -0.8202   0.00650   0.00288  -0.0541  0.7208  0.0023  -9.3236   0.0000   0.1739
  -9.500  -0.8092   0.00646   0.00282  -0.0541  0.7174  0.0024  -9.1407   0.0000   0.1730
  -9.400  -0.7984   0.00641   0.00278  -0.0541  0.7122  0.0024  -8.9600   0.0000   0.1722
  -9.300  -0.7874   0.00637   0.00272  -0.0542  0.7094  0.0024  -8.7795   0.0000   0.1712
  -9.200  -0.7765   0.00632   0.00268  -0.0542  0.7052  0.0024  -8.6015   0.0000   0.1703
  -9.100  -0.7655   0.00628   0.00263  -0.0543  0.7001  0.0024  -8.4249   0.0000   0.1693
  -9.000  -0.7546   0.00624   0.00258  -0.0543  0.6967  0.0024  -8.2494   0.0000   0.1683
  -8.900  -0.7437   0.00620   0.00254  -0.0544  0.6907  0.0024  -8.0766   0.0000   0.1673
  -8.800  -0.7327   0.00616   0.00249  -0.0544  0.6868  0.0024  -7.9042   0.0000   0.1662
  -8.700  -0.7218   0.00613   0.00245  -0.0545  0.6816  0.0024  -7.7342   0.0000   0.1651
  -8.600  -0.7107   0.00609   0.00240  -0.0545  0.6776  0.0024  -7.5647   0.0000   0.1639
  -8.500  -0.6998   0.00605   0.00236  -0.0546  0.6734  0.0024  -7.3974   0.0000   0.1627
  -8.400  -0.6888   0.00602   0.00232  -0.0546  0.6678  0.0024  -7.2317   0.0000   0.1615
  -8.300  -0.6777   0.00598   0.00228  -0.0547  0.6645  0.0024  -7.0670   0.0000   0.1602
  -8.200  -0.6668   0.00595   0.00224  -0.0547  0.6582  0.0024  -6.9050   0.0000   0.1589
  -8.100  -0.6557   0.00591   0.00219  -0.0548  0.6544  0.0024  -6.7434   0.0000   0.1575
  -8.000  -0.6448   0.00588   0.00216  -0.0548  0.6483  0.0024  -6.5846   0.0000   0.1561
  -7.900  -0.6337   0.00585   0.00212  -0.0549  0.6437  0.0024  -6.4263   0.0000   0.1546
  -7.800  -0.6228   0.00582   0.00208  -0.0549  0.6380  0.0024  -6.2705   0.0000   0.1530
  -7.700  -0.6117   0.00579   0.00204  -0.0550  0.6328  0.0024  -6.1155   0.0000   0.1514
  -7.600  -0.6008   0.00576   0.00201  -0.0551  0.6274  0.0024  -5.9628   0.0000   0.1498
  -7.500  -0.5897   0.00573   0.00197  -0.0551  0.6222  0.0024  -5.8110   0.0000   0.1480
  -7.400  -0.5787   0.00570   0.00193  -0.0552  0.6173  0.0025  -5.6616   0.0000   0.1462
  -7.300  -0.5676   0.00567   0.00189  -0.0552  0.6118  0.0026  -5.5139   0.0000   0.1443
  -7.200  -0.5566   0.00565   0.00186  -0.0553  0.6068  0.0028  -5.3679   0.0000   0.1423
  -7.100  -0.5456   0.00562   0.00182  -0.0553  0.6004  0.0029  -5.2235   0.0000   0.1403
  -7.000  -0.5346   0.00559   0.00179  -0.0554  0.5951  0.0031  -5.0808   0.0000   0.1382
  -6.900  -0.5235   0.00556   0.00175  -0.0554  0.5889  0.0032  -4.9395   0.0000   0.1359
  -6.800  -0.5126   0.00554   0.00172  -0.0554  0.5827  0.0034  -4.8004   0.0000   0.1337
  -6.700  -0.5015   0.00551   0.00168  -0.0555  0.5766  0.0035  -4.6622   0.0000   0.1312
  -6.600  -0.4906   0.00549   0.00165  -0.0555  0.5691  0.0036  -4.5263   0.0000   0.1287
  -6.500  -0.4795   0.00546   0.00162  -0.0556  0.5642  0.0037  -4.3905   0.0000   0.1260
  -6.400  -0.4685   0.00545   0.00159  -0.0556  0.5560  0.0038  -4.2574   0.0000   0.1232
  -6.300  -0.4574   0.00543   0.00156  -0.0557  0.5508  0.0038  -4.1250   0.0000   0.1203
  -6.200  -0.4464   0.00541   0.00153  -0.0557  0.5434  0.0038  -3.9947   0.0000   0.1172
  -6.100  -0.4353   0.00539   0.00151  -0.0558  0.5379  0.0038  -3.8658   0.0000   0.1139
  -6.000  -0.4242   0.00538   0.00148  -0.0559  0.5314  0.0038  -3.7384   0.0000   0.1104
  -5.900  -0.4132   0.00536   0.00146  -0.0559  0.5248  0.0039  -3.6130   0.0000   0.1068
  -5.700  -0.3910   0.00534   0.00141  -0.0560  0.5106  0.0039  -3.3704   0.0000   0.0989
  -5.600  -0.3798   0.00532   0.00138  -0.0561  0.5054  0.0039  -3.2606   0.0000   0.0945
  -5.500  -0.3688   0.00531   0.00136  -0.0561  0.4972  0.0039  -3.1528   0.0000   0.0899
  -5.400  -0.3577   0.00530   0.00134  -0.0562  0.4906  0.0039  -3.0464   0.0000   0.0851
  -5.200  -0.3356   0.00528   0.00130  -0.0563  0.4760  0.0039  -2.8371   0.0000   0.0743
  -5.100  -0.3244   0.00527   0.00127  -0.0563  0.4707  0.0041  -2.7347   0.0000   0.0683
  -5.000  -0.3133   0.00526   0.00125  -0.0564  0.4627  0.0043  -2.6342   0.0000   0.0620
  -4.900  -0.3023   0.00525   0.00123  -0.0564  0.4564  0.0046  -2.5349   0.0000   0.0552
  -4.800  -0.2911   0.00524   0.00121  -0.0565  0.4499  0.0049  -2.4366   0.0000   0.0478
  -4.700  -0.2801   0.00523   0.00119  -0.0565  0.4432  0.0051  -2.3401   0.0000   0.0400
  -4.600  -0.2689   0.00521   0.00117  -0.0566  0.4383  0.0054  -2.2441   0.0000   0.0312
  -4.500  -0.2578   0.00520   0.00115  -0.0567  0.4328  0.0056  -2.1499   0.0000   0.0218
  -4.400  -0.2465   0.00518   0.00113  -0.0567  0.4279  0.0061  -2.0565   0.0000   0.0114
  -4.300  -0.2353   0.00516   0.00110  -0.0568  0.4247  0.0071  -1.9651   0.0000   0.0000
  -4.200  -0.2242   0.00515   0.00109  -0.0569  0.4186  0.0076  -1.8751   0.0000  -0.0123
  -4.100  -0.2129   0.00513   0.00107  -0.0570  0.4156  0.0078  -1.7853   0.0000  -0.0264
  -4.000  -0.2016   0.00511   0.00105  -0.0570  0.4129  0.0087  -1.6974   0.0000  -0.0419
  -3.900  -0.1905   0.00509   0.00103  -0.0571  0.4083  0.0098  -1.6116   0.0000  -0.0589
  -3.800  -0.1792   0.00507   0.00101  -0.0572  0.4050  0.0111  -1.5263   0.0000  -0.0786
  -3.700  -0.1680   0.00505   0.00099  -0.0573  0.4030  0.0126  -1.4427   0.0000  -0.1007
  -3.600  -0.1568   0.00504   0.00098  -0.0573  0.3975  0.0132  -1.3690   0.0000  -0.1257
  -3.500  -0.1455   0.00503   0.00096  -0.0574  0.3935  0.0147  -1.2970   0.0000  -0.1549
  -3.400  -0.1343   0.00501   0.00094  -0.0575  0.3904  0.0160  -1.2261   0.0000  -0.1889
  -3.300  -0.1232   0.00499   0.00093  -0.0575  0.3841  0.0188  -1.1572   0.0000  -0.2281
  -3.200  -0.1119   0.00498   0.00091  -0.0576  0.3811  0.0207  -1.0882   0.0000  -0.2767
  -3.100  -0.1009   0.00497   0.00090  -0.0576  0.3749  0.0223  -1.0212   0.0000  -0.3343
  -3.000  -0.0897   0.00496   0.00088  -0.0577  0.3700  0.0247  -0.9547   0.0000  -0.4077
  -2.900  -0.0786   0.00496   0.00088  -0.0578  0.3628  0.0263  -0.8898   0.0000  -0.4998
  -2.800  -0.0675   0.00494   0.00086  -0.0578  0.3578  0.0299  -0.8258   0.0000  -0.6240
  -2.700  -0.0565   0.00494   0.00085  -0.0578  0.3489  0.0334  -0.7634   0.0000  -0.7932
  -2.600  -0.0454   0.00495   0.00084  -0.0579  0.3423  0.0346  -0.7030   0.0000  -1.0474
  -2.500  -0.0342   0.00494   0.00083  -0.0580  0.3366  0.0373  -0.6547   0.0000  -1.4737
  -2.400  -0.0232   0.00494   0.00083  -0.0580  0.3288  0.0392  -0.6148   0.0000  -2.2931
  -2.200  -0.0009   0.00494   0.00082  -0.0581  0.3166  0.0452  -0.5424   0.0000  -66.4340
  -2.100   0.0102   0.00493   0.00080  -0.0581  0.3117  0.0488  -0.5114   0.0000   6.0153
  -2.000   0.0213   0.00493   0.00080  -0.0582  0.3046  0.0530  -0.4876   0.0000   3.0152
  -1.900   0.0322   0.00492   0.00079  -0.0582  0.2975  0.0598  -0.4643   0.0000   2.0782
  -1.800   0.0433   0.00490   0.00078  -0.0582  0.2923  0.0693  -0.4411   0.0000   1.6116
  -1.600   0.0652   0.00490   0.00078  -0.0583  0.2773  0.0797  -0.3967   0.0000   1.1524
  -1.400   0.0874   0.00489   0.00077  -0.0584  0.2652  0.0914  -0.3931   0.0000   0.9236
  -1.200   0.1097   0.00487   0.00076  -0.0585  0.2584  0.1038  -0.4032   0.0000   0.7865
  -1.100   0.1210   0.00487   0.00076  -0.0586  0.2541  0.1094  -0.4085   0.0000   0.7370
  -1.000   0.1322   0.00485   0.00075  -0.0587  0.2523  0.1150  -0.4141   0.0000   0.6957
  -0.900   0.1433   0.00484   0.00075  -0.0587  0.2486  0.1223  -0.4200   0.0000   0.6612
  -0.800   0.1544   0.00484   0.00075  -0.0588  0.2429  0.1299  -0.4259   0.0000   0.6317
  -0.700   0.1655   0.00485   0.00075  -0.0588  0.2369  0.1352  -0.4319   0.0000   0.6061
  -0.500   0.1879   0.00487   0.00076  -0.0589  0.2238  0.1394  -0.4444   0.0000   0.5639
  -0.400   0.1990   0.00488   0.00077  -0.0590  0.2190  0.1441  -0.4509   0.0000   0.5464
  -0.300   0.2102   0.00489   0.00077  -0.0591  0.2141  0.1468  -0.4579   0.0000   0.5307
  -0.200   0.2215   0.00490   0.00077  -0.0591  0.2109  0.1504  -0.4649   0.0000   0.5165
   0.000   0.2437   0.00492   0.00079  -0.0592  0.1995  0.1586  -0.4793   0.0000   0.4922
   0.200   0.2657   0.00492   0.00079  -0.0593  0.1877  0.1790  -0.4948   0.0000   0.4720
   0.400   0.2879   0.00492   0.00081  -0.0594  0.1796  0.1955  -0.5106   0.0000   0.4549
   0.600   0.3103   0.00493   0.00082  -0.0596  0.1725  0.2030  -0.5276   0.0000   0.4402
   0.700   0.3215   0.00494   0.00082  -0.0596  0.1680  0.2086  -0.5365   0.0000   0.4336
   0.800   0.3325   0.00497   0.00083  -0.0597  0.1601  0.2117  -0.5488   0.0000   0.4275
   0.900   0.3435   0.00499   0.00085  -0.0597  0.1530  0.2184  -0.5564   0.0000   0.4217
   1.000   0.3546   0.00500   0.00086  -0.0597  0.1486  0.2248  -0.5665   0.0000   0.4163
   1.100   0.3656   0.00501   0.00087  -0.0598  0.1434  0.2329  -0.5773   0.0000   0.4112
   1.300   0.3880   0.00499   0.00088  -0.0599  0.1403  0.2521  -0.5984   0.0000   0.4020
   1.400   0.3991   0.00500   0.00089  -0.0600  0.1371  0.2606  -0.6110   0.0000   0.3977
   1.500   0.4104   0.00500   0.00090  -0.0601  0.1351  0.2668  -0.6244   0.0000   0.3937
   1.600   0.4216   0.00500   0.00091  -0.0601  0.1332  0.2740  -0.6395   0.0000   0.3899
   1.700   0.4325   0.00501   0.00092  -0.0602  0.1278  0.2836  -0.6545   0.0000   0.3863
   1.800   0.4436   0.00502   0.00094  -0.0602  0.1247  0.2922  -0.6696   0.0000   0.3829
   1.900   0.4546   0.00504   0.00095  -0.0602  0.1188  0.3002  -0.6846   0.0000   0.3796
   2.000   0.4654   0.00507   0.00097  -0.0602  0.1107  0.3086  -0.7001   0.0000   0.3764
   2.100   0.4762   0.00509   0.00099  -0.0602  0.1037  0.3173  -0.7170   0.0000   0.3734
   2.200   0.4871   0.00512   0.00101  -0.0603  0.0977  0.3249  -0.7351   0.0000   0.3705
   2.300   0.4982   0.00514   0.00103  -0.0603  0.0938  0.3291  -0.7540   0.0000   0.3678
   2.500   0.5203   0.00519   0.00106  -0.0604  0.0848  0.3370  -0.7922   0.0000   0.3626
   2.700   0.5424   0.00527   0.00111  -0.0605  0.0760  0.3396  -0.8364   0.0000   0.3579
   2.800   0.5535   0.00530   0.00113  -0.0605  0.0710  0.3417  -0.8598   0.0000   0.3557
   2.900   0.5644   0.00533   0.00115  -0.0606  0.0664  0.3485  -0.8833   0.0000   0.3535
   3.000   0.5756   0.00534   0.00117  -0.0606  0.0651  0.3539  -0.9073   0.0000   0.3515
   3.100   0.5865   0.00536   0.00119  -0.0606  0.0612  0.3628  -0.9312   0.0000   0.3495
   3.300   0.6082   0.00540   0.00124  -0.0607  0.0536  0.3842  -0.9842   0.0000   0.3457
   3.400   0.6191   0.00542   0.00126  -0.0607  0.0501  0.3944  -1.0153   0.0000   0.3439
   3.500   0.6300   0.00545   0.00129  -0.0607  0.0468  0.4042  -1.0519   0.0000   0.3421
   3.600   0.6410   0.00546   0.00131  -0.0608  0.0451  0.4142  -1.0892   0.0000   0.3404
   3.700   0.6519   0.00548   0.00134  -0.0608  0.0424  0.4234  -1.1310   0.0000   0.3388
   4.100   0.6955   0.00554   0.00144  -0.0609  0.0336  0.4670  -1.3444   0.0000   0.3328
   4.200   0.7062   0.00558   0.00148  -0.0609  0.0295  0.4774  -1.4031   0.0000   0.3313
   4.300   0.7169   0.00562   0.00151  -0.0609  0.0258  0.4872  -1.4626   0.0000   0.3299
   4.400   0.7278   0.00564   0.00154  -0.0609  0.0239  0.4965  -1.5236   0.0000   0.3286
   4.500   0.7386   0.00567   0.00158  -0.0609  0.0217  0.5054  -1.5847   0.0000   0.3273
   4.700   0.7605   0.00572   0.00164  -0.0609  0.0191  0.5208  -1.7104   0.0000   0.3248
   4.800   0.7714   0.00574   0.00167  -0.0610  0.0177  0.5274  -1.7760   0.0000   0.3237
   5.100   0.8042   0.00585   0.00177  -0.0611  0.0143  0.5421  -2.0062   0.0000   0.3203
   5.200   0.8150   0.00589   0.00181  -0.0611  0.0133  0.5482  -2.0873   0.0000   0.3192
   5.300   0.8260   0.00592   0.00184  -0.0611  0.0122  0.5517  -2.1700   0.0000   0.3181
   5.400   0.8370   0.00595   0.00187  -0.0612  0.0119  0.5563  -2.2542   0.0000   0.3171
   5.500   0.8479   0.00598   0.00191  -0.0612  0.0114  0.5622  -2.3388   0.0000   0.3161
   5.600   0.8587   0.00603   0.00195  -0.0612  0.0103  0.5671  -2.4240   0.0000   0.3151
   5.700   0.8696   0.00605   0.00198  -0.0612  0.0095  0.5743  -2.5106   0.0000   0.3142
   5.800   0.8804   0.00609   0.00202  -0.0613  0.0091  0.5805  -2.5984   0.0000   0.3132
   5.900   0.8912   0.00612   0.00206  -0.0613  0.0086  0.5873  -2.6867   0.0000   0.3123
   6.000   0.9020   0.00616   0.00210  -0.0613  0.0081  0.5953  -2.7763   0.0000   0.3114
   6.100   0.9129   0.00619   0.00214  -0.0613  0.0076  0.6004  -2.8673   0.0000   0.3105
   6.300   0.9347   0.00625   0.00221  -0.0614  0.0074  0.6140  -3.0528   0.0000   0.3088
   6.400   0.9455   0.00627   0.00225  -0.0614  0.0073  0.6217  -3.1469   0.0000   0.3079
   6.500   0.9563   0.00631   0.00229  -0.0614  0.0072  0.6274  -3.2422   0.0000   0.3071
   6.600   0.9670   0.00635   0.00233  -0.0614  0.0069  0.6335  -3.3379   0.0000   0.3063
   6.700   0.9778   0.00640   0.00238  -0.0614  0.0065  0.6387  -3.4345   0.0000   0.3055
   6.800   0.9885   0.00643   0.00242  -0.0614  0.0062  0.6448  -3.5344   0.0000   0.3047
   6.900   0.9993   0.00648   0.00247  -0.0614  0.0058  0.6494  -3.6427   0.0000   0.3039
   7.000   1.0100   0.00651   0.00251  -0.0614  0.0055  0.6556  -3.7520   0.0000   0.3032
   7.100   1.0208   0.00655   0.00255  -0.0615  0.0055  0.6578  -3.8632   0.0000   0.3024
   7.200   1.0316   0.00659   0.00259  -0.0615  0.0055  0.6630  -3.9754   0.0000   0.3017
   7.300   1.0424   0.00663   0.00263  -0.0615  0.0054  0.6669  -4.0886   0.0000   0.3010
   7.400   1.0531   0.00668   0.00268  -0.0615  0.0053  0.6689  -4.2032   0.0000   0.3003
   7.500   1.0637   0.00674   0.00273  -0.0615  0.0051  0.6730  -4.3182   0.0000   0.2996
   7.600   1.0743   0.00679   0.00279  -0.0614  0.0048  0.6770  -4.4336   0.0000   0.2989
   7.700   1.0849   0.00685   0.00284  -0.0614  0.0044  0.6793  -4.5507   0.0000   0.2982
   7.800   1.0955   0.00690   0.00289  -0.0614  0.0041  0.6804  -4.6695   0.0000   0.2975
   7.900   1.1062   0.00695   0.00294  -0.0614  0.0039  0.6839  -4.7898   0.0000   0.2968
   8.000   1.1169   0.00700   0.00299  -0.0614  0.0039  0.6872  -4.9112   0.0000   0.2962
   8.100   1.1275   0.00705   0.00304  -0.0614  0.0038  0.6898  -5.0338   0.0000   0.2955
   8.200   1.1381   0.00710   0.00309  -0.0614  0.0038  0.6911  -5.1577   0.0000   0.2949
   8.300   1.1487   0.00716   0.00315  -0.0614  0.0036  0.6935  -5.2822   0.0000   0.2942
   8.400   1.1591   0.00723   0.00321  -0.0613  0.0035  0.6970  -5.4070   0.0000   0.2936
   8.500   1.1695   0.00729   0.00327  -0.0613  0.0033  0.6999  -5.5327   0.0000   0.2929
   8.600   1.1799   0.00735   0.00333  -0.0613  0.0031  0.7016  -5.6600   0.0000   0.2923
   8.700   1.1904   0.00741   0.00339  -0.0612  0.0030  0.7025  -5.7888   0.0000   0.2917
   8.800   1.2009   0.00747   0.00345  -0.0612  0.0028  0.7054  -5.9201   0.0000   0.2911
   8.900   1.2113   0.00753   0.00351  -0.0612  0.0027  0.7084  -6.0616   0.0000   0.2905
   9.000   1.2218   0.00759   0.00356  -0.0611  0.0026  0.7109  -6.2045   0.0000   0.2899
   9.100   1.2322   0.00765   0.00362  -0.0611  0.0025  0.7124  -6.3490   0.0000   0.2893
   9.200   1.2427   0.00771   0.00368  -0.0611  0.0025  0.7132  -6.4951   0.0000   0.2887
   9.300   1.2531   0.00777   0.00374  -0.0610  0.0025  0.7139  -6.6426   0.0000   0.2881
   9.400   1.2635   0.00783   0.00379  -0.0610  0.0025  0.7166  -6.7911   0.0000   0.2876
   9.500   1.2739   0.00789   0.00385  -0.0609  0.0025  0.7191  -6.9408   0.0000   0.2870
   9.600   1.2842   0.00795   0.00391  -0.0609  0.0025  0.7213  -7.0917   0.0000   0.2864
   9.700   1.2946   0.00801   0.00397  -0.0608  0.0025  0.7230  -7.2440   0.0000   0.2859
   9.800   1.3049   0.00807   0.00404  -0.0608  0.0025  0.7240  -7.3976   0.0000   0.2853
   9.900   1.3152   0.00814   0.00410  -0.0607  0.0025  0.7251  -7.5525   0.0000   0.2848
  10.000   1.3254   0.00820   0.00416  -0.0607  0.0025  0.7280  -7.7083   0.0000   0.2842
  10.100   1.3356   0.00827   0.00423  -0.0606  0.0025  0.7306  -7.8653   0.0000   0.2837
  10.200   1.3458   0.00833   0.00429  -0.0605  0.0025  0.7326  -8.0235   0.0000   0.2831
  10.300   1.3560   0.00840   0.00436  -0.0605  0.0025  0.7340  -8.1830   0.0000   0.2826
  10.400   1.3662   0.00847   0.00442  -0.0604  0.0025  0.7347  -8.3437   0.0000   0.2820
  10.500   1.3763   0.00854   0.00449  -0.0603  0.0025  0.7352  -8.5057   0.0000   0.2815
  10.600   1.3864   0.00861   0.00456  -0.0602  0.0025  0.7357  -8.6687   0.0000   0.2810
  10.700   1.3965   0.00868   0.00463  -0.0601  0.0024  0.7375  -8.8327   0.0000   0.2805
  10.800   1.4065   0.00876   0.00470  -0.0600  0.0024  0.7395  -8.9977   0.0000   0.2799
  10.900   1.4164   0.00883   0.00478  -0.0599  0.0024  0.7412  -9.1634   0.0000   0.2794
  11.000   1.4263   0.00891   0.00486  -0.0598  0.0023  0.7427  -9.3299   0.0000   0.2788
  11.100   1.4361   0.00900   0.00494  -0.0597  0.0023  0.7439  -9.4970   0.0000   0.2783
  11.200   1.4458   0.00909   0.00503  -0.0595  0.0022  0.7449  -9.6648   0.0000   0.2778
  11.300   1.4555   0.00918   0.00512  -0.0594  0.0021  0.7456  -9.8333   0.0000   0.2772
  11.400   1.4651   0.00927   0.00521  -0.0592  0.0021  0.7461  -10.0029   0.0000   0.2767
  11.500   1.4748   0.00936   0.00530  -0.0590  0.0020  0.7469  -10.1736   0.0000   0.2762
  11.600   1.4844   0.00945   0.00538  -0.0589  0.0019  0.7489  -10.3453   0.0000   0.2756
  11.700   1.4940   0.00954   0.00547  -0.0587  0.0019  0.7508  -10.5219   0.0000   0.2751
  11.800   1.5035   0.00963   0.00556  -0.0585  0.0018  0.7524  -10.7077   0.0000   0.2746
  11.900   1.5131   0.00972   0.00565  -0.0584  0.0017  0.7539  -10.8948   0.0000   0.2740
  12.000   1.5226   0.00980   0.00573  -0.0582  0.0017  0.7550  -11.0831   0.0000   0.2735
  12.100   1.5321   0.00989   0.00582  -0.0580  0.0016  0.7557  -11.2727   0.0000   0.2730
  12.200   1.5415   0.00999   0.00591  -0.0578  0.0015  0.7562  -11.4635   0.0000   0.2725
  12.300   1.5510   0.01008   0.00600  -0.0576  0.0015  0.7566  -11.6554   0.0000   0.2720
  12.400   1.5604   0.01017   0.00609  -0.0574  0.0015  0.7569  -11.8485   0.0000   0.2714
  12.500   1.5697   0.01026   0.00618  -0.0573  0.0015  0.7574  -12.0430   0.0000   0.2709
  12.600   1.5790   0.01035   0.00627  -0.0570  0.0015  0.7590  -12.2383   0.0000   0.2704
  12.700   1.5883   0.01044   0.00636  -0.0568  0.0015  0.7606  -12.4344   0.0000   0.2699
  12.800   1.5975   0.01053   0.00645  -0.0566  0.0015  0.7620  -12.6314   0.0000   0.2694
  12.900   1.6066   0.01063   0.00655  -0.0564  0.0015  0.7632  -12.8293   0.0000   0.2688
  13.000   1.6157   0.01072   0.00664  -0.0561  0.0015  0.7643  -13.0281   0.0000   0.2683
  13.100   1.6247   0.01082   0.00674  -0.0559  0.0015  0.7653  -13.2277   0.0000   0.2678
  13.200   1.6337   0.01092   0.00684  -0.0556  0.0015  0.7661  -13.4282   0.0000   0.2673
  13.300   1.6426   0.01102   0.00693  -0.0554  0.0015  0.7666  -13.6294   0.0000   0.2667
  13.400   1.6512   0.01111   0.00703  -0.0550  0.0015  0.7670  -13.8289   0.0000   0.2662
  13.500   1.6590   0.01120   0.00712  -0.0545  0.0014  0.7673  -14.0210   0.0000   0.2655
  13.600   1.6667   0.01130   0.00722  -0.0540  0.0014  0.7676  -14.2143   0.0000   0.2649
  13.700   1.6746   0.01140   0.00732  -0.0535  0.0014  0.7685  -14.4102   0.0000   0.2643
  13.800   1.6825   0.01151   0.00742  -0.0530  0.0014  0.7700  -14.6074   0.0000   0.2637
  13.900   1.6903   0.01161   0.00753  -0.0526  0.0014  0.7714  -14.8053   0.0000   0.2630
  14.000   1.6980   0.01172   0.00764  -0.0521  0.0014  0.7727  -15.0035   0.0000   0.2624
  14.100   1.7057   0.01183   0.00776  -0.0516  0.0014  0.7738  -15.2021   0.0000   0.2618
  14.200   1.7133   0.01195   0.00787  -0.0511  0.0014  0.7749  -15.4011   0.0000   0.2612
  14.300   1.7208   0.01206   0.00799  -0.0506  0.0014  0.7758  -15.6004   0.0000   0.2606
  14.400   1.7283   0.01218   0.00811  -0.0500  0.0014  0.7765  -15.7999   0.0000   0.2600
  14.500   1.7356   0.01231   0.00824  -0.0495  0.0014  0.7771  -15.9999   0.0000   0.2594
  14.600   1.7429   0.01243   0.00836  -0.0490  0.0014  0.7775  -16.2002   0.0000   0.2587
  14.700   1.7502   0.01256   0.00849  -0.0484  0.0014  0.7778  -16.4007   0.0000   0.2581
  14.800   1.7573   0.01269   0.00862  -0.0479  0.0014  0.7780  -16.6014   0.0000   0.2575
  14.900   1.7643   0.01283   0.00876  -0.0473  0.0014  0.7782  -16.8021   0.0000   0.2569
  15.000   1.7713   0.01297   0.00891  -0.0467  0.0014  0.7793  -17.0024   0.0000   0.2563
  15.100   1.7780   0.01312   0.00906  -0.0461  0.0013  0.7808  -17.2022   0.0000   0.2556
  15.200   1.7847   0.01328   0.00922  -0.0455  0.0013  0.7821  -17.4013   0.0000   0.2550
  15.300   1.7912   0.01344   0.00938  -0.0449  0.0013  0.7833  -17.5997   0.0000   0.2544
  15.400   1.7976   0.01361   0.00955  -0.0443  0.0013  0.7844  -17.7981   0.0000   0.2537
  15.500   1.8039   0.01378   0.00973  -0.0436  0.0012  0.7854  -17.9965   0.0000   0.2531
  15.600   1.8101   0.01396   0.00991  -0.0430  0.0012  0.7862  -18.1941   0.0000   0.2525
  15.700   1.8164   0.01414   0.01009  -0.0423  0.0012  0.7870  -18.3930   0.0000   0.2518
  15.800   1.8225   0.01432   0.01028  -0.0417  0.0011  0.7875  -18.5919   0.0000   0.2512
  15.900   1.8286   0.01451   0.01047  -0.0410  0.0011  0.7879  -18.7912   0.0000   0.2506
  16.000   1.8346   0.01470   0.01067  -0.0404  0.0011  0.7882  -18.9903   0.0000   0.2499
  16.100   1.8407   0.01489   0.01086  -0.0398  0.0011  0.7885  -19.1914   0.0000   0.2493
  16.200   1.8467   0.01509   0.01106  -0.0391  0.0010  0.7887  -19.3925   0.0000   0.2487
  16.300   1.8527   0.01528   0.01126  -0.0385  0.0010  0.7895  -19.5939   0.0000   0.2481
  16.400   1.8585   0.01549   0.01147  -0.0378  0.0010  0.7909  -19.7949   0.0000   0.2475
  16.500   1.8643   0.01569   0.01168  -0.0372  0.0010  0.7923  -19.9971   0.0000   0.2468
  16.600   1.8702   0.01589   0.01189  -0.0366  0.0009  0.7935  -20.2003   0.0000   0.2462
  16.700   1.8760   0.01611   0.01211  -0.0360  0.0009  0.7946  -20.4029   0.0000   0.2456
  16.800   1.8817   0.01632   0.01232  -0.0353  0.0009  0.7956  -20.6060   0.0000   0.2450
  16.900   1.8871   0.01654   0.01255  -0.0347  0.0009  0.7966  -20.8071   0.0000   0.2444
  17.000   1.8928   0.01676   0.01278  -0.0340  0.0008  0.7974  -21.0110   0.0000   0.2438
  17.100   1.8982   0.01700   0.01302  -0.0334  0.0008  0.7980  -21.2134   0.0000   0.2432
  17.200   1.9037   0.01723   0.01326  -0.0328  0.0008  0.7985  -21.4175   0.0000   0.2426
  17.300   1.9092   0.01747   0.01350  -0.0321  0.0008  0.7988  -21.6214   0.0000   0.2420
  17.400   1.9143   0.01772   0.01375  -0.0315  0.0008  0.7991  -21.8228   0.0000   0.2414
  17.500   1.9196   0.01796   0.01400  -0.0308  0.0007  0.8004  -22.0263   0.0000   0.2408
  17.600   1.9245   0.01823   0.01427  -0.0302  0.0007  0.8020  -22.2268   0.0000   0.2402
  17.700   1.9297   0.01848   0.01454  -0.0296  0.0007  0.8035  -22.4306   0.0000   0.2396
  17.800   1.9346   0.01876   0.01481  -0.0289  0.0007  0.8048  -22.6320   0.0000   0.2391
  17.900   1.9396   0.01903   0.01510  -0.0283  0.0007  0.8060  -22.8349   0.0000   0.2385
  18.000   1.9446   0.01930   0.01538  -0.0277  0.0007  0.8070  -23.0399   0.0000   0.2379
  18.100   1.9492   0.01959   0.01567  -0.0270  0.0007  0.8079  -23.2397   0.0000   0.2373
  18.200   1.9540   0.01988   0.01596  -0.0264  0.0007  0.8086  -23.4425   0.0000   0.2367
  18.300   1.9584   0.02019   0.01628  -0.0257  0.0007  0.8091  -23.6412   0.0000   0.2361
  18.500   1.9675   0.02080   0.01691  -0.0245  0.0007  0.8113  -24.0442   0.0000   0.2350
  18.600   1.9717   0.02113   0.01725  -0.0238  0.0007  0.8132  -24.2427   0.0000   0.2344
  18.700   1.9762   0.02146   0.01758  -0.0232  0.0007  0.8149  -24.4452   0.0000   0.2338
  18.800   1.9801   0.02181   0.01794  -0.0225  0.0007  0.8163  -24.6414   0.0000   0.2332
  18.900   1.9843   0.02215   0.01829  -0.0219  0.0007  0.8176  -24.8418   0.0000   0.2327
  19.000   1.9881   0.02251   0.01866  -0.0213  0.0007  0.8185  -25.0365   0.0000   0.2321
  19.100   1.9918   0.02288   0.01904  -0.0206  0.0007  0.8192  -25.2305   0.0000   0.2315
  19.200   1.9956   0.02325   0.01941  -0.0200  0.0007  0.8199  -25.4280   0.0000   0.2309
  19.300   1.9990   0.02365   0.01982  -0.0194  0.0007  0.8222  -25.6190   0.0000   0.2303
  19.400   2.0028   0.02403   0.02022  -0.0188  0.0007  0.8243  -25.8167   0.0000   0.2298
  19.500   2.0060   0.02445   0.02065  -0.0181  0.0007  0.8261  -26.0058   0.0000   0.2292
  19.600   2.0095   0.02486   0.02107  -0.0175  0.0007  0.8276  -26.2004   0.0000   0.2287
  19.700   2.0127   0.02530   0.02152  -0.0169  0.0007  0.8288  -26.3912   0.0000   0.2281
  19.900   2.0189   0.02619   0.02243  -0.0157  0.0007  0.8331  -26.7724   0.0000   0.2270
  20.000   2.0214   0.02667   0.02292  -0.0151  0.0007  0.8359  -26.9534   0.0000   0.2264


