xflr5 v6.32

 Calculated polar for: finalfoil mod1

 1 1 Reynolds number fixed          Mach number fixed         

 xtrf =   1.000 (top)        1.000 (bottom)
 Mach =   0.000     Re =     0.130 e 6     Ncrit =   9.000

  alpha     CL        CD       CDp       Cm    Top Xtr Bot Xtr   Cpmin    Chinge    XCp    
 ------- -------- --------- --------- -------- ------- ------- -------- --------- ---------
 -14.400  -0.4855   0.16087   0.15610  -0.0266  1.0000  0.0598  -1.7655   0.0000   0.1772
 -14.300  -0.4905   0.15941   0.15467  -0.0286  1.0000  0.0602  -1.8382   0.0000   0.1741
 -13.600  -0.2899   0.12129   0.11722  -0.0416  1.0000  0.0750  -1.2258   0.0000   0.0956
 -13.500  -0.2904   0.12058   0.11652  -0.0415  1.0000  0.0760  -1.2317   0.0000   0.0962
 -13.400  -0.2927   0.11989   0.11584  -0.0416  1.0000  0.0771  -1.2495   0.0000   0.0969
 -13.300  -0.2984   0.11928   0.11525  -0.0421  1.0000  0.0781  -1.2895   0.0000   0.0979
 -13.200  -0.3073   0.11873   0.11471  -0.0431  1.0000  0.0786  -1.3506   0.0000   0.0989
 -13.100  -0.3171   0.11808   0.11408  -0.0442  1.0000  0.0788  -1.4188   0.0000   0.0998
 -13.000  -0.3060   0.11679   0.11280  -0.0424  1.0000  0.0795  -1.3470   0.0000   0.1008
 -12.900  -0.3016   0.11600   0.11200  -0.0415  1.0000  0.0803  -1.3158   0.0000   0.1020
 -12.800  -0.3007   0.11530   0.11131  -0.0410  1.0000  0.0813  -1.3073   0.0000   0.1033
 -12.700  -0.3017   0.11461   0.11063  -0.0407  1.0000  0.0823  -1.3115   0.0000   0.1046
 -12.600  -0.3046   0.11389   0.10992  -0.0407  1.0000  0.0834  -1.3281   0.0000   0.1059
 -12.500  -0.3110   0.11314   0.10918  -0.0413  1.0000  0.0845  -1.3684   0.0000   0.1070
 -12.400  -0.3218   0.11232   0.10838  -0.0424  1.0000  0.0852  -1.4376   0.0000   0.1078
 -12.300  -0.3339   0.11144   0.10751  -0.0438  1.0000  0.0854  -1.5146   0.0000   0.1085
 -12.200  -0.3239   0.11039   0.10647  -0.0419  1.0000  0.0861  -1.4489   0.0000   0.1105
 -12.100  -0.3191   0.10969   0.10578  -0.0407  1.0000  0.0870  -1.4125   0.0000   0.1124
 -12.000  -0.3183   0.10901   0.10511  -0.0401  1.0000  0.0880  -1.4018   0.0000   0.1140
 -11.900  -0.3200   0.10828   0.10438  -0.0399  1.0000  0.0891  -1.4069   0.0000   0.1154
 -11.800  -0.3244   0.10744   0.10354  -0.0401  1.0000  0.0904  -1.4298   0.0000   0.1166
 -11.700  -0.3329   0.10639   0.10250  -0.0409  1.0000  0.0915  -1.4793   0.0000   0.1174
 -11.600  -0.3455   0.10494   0.10106  -0.0422  1.0000  0.0921  -1.5546   0.0000   0.1181
 -11.500  -0.3599   0.10325   0.09940  -0.0437  1.0000  0.0924  -1.6406   0.0000   0.1188
 -11.400  -0.4810   0.11339   0.10898  -0.0479  1.0000  0.0854  -2.0980   0.0000   0.1367
  -8.300  -0.7014   0.07253   0.06848  -0.0358  1.0000  0.1064  -2.7112   0.0000   0.1916
  -7.300  -0.7491   0.04686   0.04091  -0.0236  1.0000  0.0539  -3.5942   0.0000   0.2115
  -7.200  -0.7445   0.04534   0.03937  -0.0230  1.0000  0.0522  -3.5830   0.0000   0.2122
  -7.100  -0.7472   0.04065   0.03374  -0.0204  1.0000  0.0438  -3.9182   0.0000   0.2157
  -7.000  -0.7410   0.03946   0.03250  -0.0199  1.0000  0.0435  -3.8905   0.0000   0.2162
  -6.900  -0.7351   0.03825   0.03117  -0.0193  1.0000  0.0431  -3.8747   0.0000   0.2169
  -6.800  -0.7291   0.03705   0.02981  -0.0186  1.0000  0.0428  -3.8671   0.0000   0.2176
  -6.700  -0.7229   0.03592   0.02848  -0.0180  1.0000  0.0429  -3.8594   0.0000   0.2183
  -6.600  -0.7163   0.03486   0.02721  -0.0173  1.0000  0.0431  -3.8501   0.0000   0.2191
  -6.500  -0.7093   0.03386   0.02598  -0.0167  1.0000  0.0434  -3.8396   0.0000   0.2198
  -6.400  -0.7019   0.03290   0.02479  -0.0161  1.0000  0.0436  -3.8271   0.0000   0.2204
  -6.300  -0.6941   0.03199   0.02366  -0.0155  1.0000  0.0438  -3.8105   0.0000   0.2211
  -6.200  -0.6857   0.03113   0.02262  -0.0150  1.0000  0.0439  -3.7865   0.0000   0.2216
  -6.100  -0.6770   0.03030   0.02163  -0.0145  1.0000  0.0440  -3.7589   0.0000   0.2220
  -6.000  -0.6681   0.02951   0.02070  -0.0141  1.0000  0.0442  -3.7289   0.0000   0.2225
  -5.900  -0.6591   0.02867   0.01986  -0.0138  1.0000  0.0446  -3.6768   0.0000   0.2227
  -5.800  -0.6502   0.02801   0.01921  -0.0135  1.0000  0.0452  -3.6187   0.0000   0.2229
  -5.700  -0.6414   0.02743   0.01860  -0.0131  1.0000  0.0458  -3.5634   0.0000   0.2232
  -5.600  -0.6325   0.02686   0.01799  -0.0128  1.0000  0.0466  -3.5121   0.0000   0.2236
  -5.500  -0.6236   0.02631   0.01737  -0.0123  1.0000  0.0475  -3.4643   0.0000   0.2240
  -5.400  -0.6146   0.02584   0.01676  -0.0119  1.0000  0.0488  -3.4202   0.0000   0.2245
  -5.300  -0.6061   0.02531   0.01627  -0.0116  1.0000  0.0504  -3.3550   0.0000   0.2248
  -5.200  -0.5977   0.02494   0.01592  -0.0113  1.0000  0.0523  -3.2857   0.0000   0.2251
  -5.100  -0.5888   0.02455   0.01542  -0.0108  1.0000  0.0544  -3.2360   0.0000   0.2256
  -5.000  -0.5803   0.02403   0.01498  -0.0105  1.0000  0.0561  -3.1721   0.0000   0.2260
  -4.900  -0.5717   0.02362   0.01458  -0.0102  1.0000  0.0582  -3.1177   0.0000   0.2264
  -4.800  -0.5630   0.02320   0.01410  -0.0097  1.0000  0.0607  -3.0828   0.0000   0.2269
  -4.700  -0.5547   0.02281   0.01380  -0.0095  1.0000  0.0639  -3.0261   0.0000   0.2271
  -4.600  -0.5463   0.02243   0.01343  -0.0092  1.0000  0.0678  -2.9780   0.0000   0.2275
  -4.500  -0.5376   0.02210   0.01308  -0.0089  1.0000  0.0725  -2.9331   0.0000   0.2279
  -4.400  -0.5262   0.02167   0.01271  -0.0092  0.9994  0.0786  -2.8776   0.0000   0.2270
  -4.300  -0.5128   0.02122   0.01239  -0.0100  0.9983  0.0878  -2.8105   0.0000   0.2249
  -4.200  -0.4992   0.02076   0.01203  -0.0108  0.9971  0.1016  -2.7483   0.0000   0.2228
  -4.100  -0.4859   0.02018   0.01165  -0.0116  0.9960  0.1253  -2.6863   0.0000   0.2205
  -4.000  -0.4727   0.01936   0.01122  -0.0126  0.9951  0.1760  -2.6238   0.0000   0.2178
  -3.900  -0.4608   0.01824   0.01083  -0.0138  0.9943  0.2872  -2.5518   0.0000   0.2146
  -3.800  -0.4508   0.01702   0.01075  -0.0143  0.9937  0.4859  -2.4740   0.0000   0.2129
  -3.700  -0.4418   0.01688   0.01122  -0.0134  0.9926  0.6097  -2.3929   0.0000   0.2144
  -3.600  -0.4319   0.01713   0.01162  -0.0126  0.9909  0.6648  -2.3089   0.0000   0.2155
  -3.500  -0.4212   0.01745   0.01197  -0.0121  0.9890  0.6980  -2.2227   0.0000   0.2161
  -3.400  -0.4095   0.01781   0.01230  -0.0118  0.9872  0.7232  -2.1330   0.0000   0.2159
  -3.300  -0.3993   0.01817   0.01263  -0.0112  0.9852  0.7409  -2.0491   0.0000   0.2167
  -3.200  -0.3886   0.01850   0.01290  -0.0108  0.9833  0.7571  -1.9643   0.0000   0.2169
  -3.100  -0.3783   0.01885   0.01322  -0.0102  0.9815  0.7694  -1.8813   0.0000   0.2179
  -3.000  -0.3691   0.01914   0.01347  -0.0095  0.9794  0.7805  -1.8032   0.0000   0.2192
  -2.900  -0.3586   0.01944   0.01373  -0.0089  0.9776  0.7910  -1.7215   0.0000   0.2199
  -2.800  -0.3498   0.01967   0.01391  -0.0082  0.9754  0.8005  -1.6470   0.0000   0.2215
  -2.700  -0.3391   0.01991   0.01411  -0.0078  0.9736  0.8099  -1.5716   0.0000   0.2220
  -2.600  -0.3311   0.02010   0.01427  -0.0068  0.9713  0.8174  -1.5084   0.0000   0.2244
  -2.500  -0.3211   0.02029   0.01443  -0.0062  0.9693  0.8251  -1.4398   0.0000   0.2256
  -2.400  -0.3126   0.02043   0.01452  -0.0055  0.9671  0.8325  -1.3769   0.0000   0.2274
  -2.300  -0.3025   0.02057   0.01462  -0.0051  0.9651  0.8404  -1.3104   0.0000   0.2282
  -2.200  -0.2937   0.02070   0.01472  -0.0044  0.9629  0.8472  -1.2480   0.0000   0.2303
  -2.100  -0.2854   0.02080   0.01479  -0.0036  0.9606  0.8536  -1.1877   0.0000   0.2327
  -2.000  -0.2742   0.02093   0.01488  -0.0034  0.9588  0.8606  -1.1201   0.0000   0.2329
  -1.900  -0.2669   0.02098   0.01489  -0.0026  0.9561  0.8675  -1.0650   0.0000   0.2357
  -1.800  -0.2564   0.02110   0.01497  -0.0021  0.9542  0.8734  -1.0006   0.0000   0.2371
  -1.700  -0.2492   0.02113   0.01498  -0.0012  0.9515  0.8796  -0.9473   0.0000   0.2406
  -1.600  -0.2399   0.02122   0.01502  -0.0006  0.9493  0.8870  -0.8882   0.0000   0.2430
  -1.500  -0.2322   0.02129   0.01507   0.0004  0.9470  0.8950  -0.8350   0.0000   0.2473
  -1.400  -0.2255   0.02134   0.01511   0.0017  0.9444  0.9033  -0.7897   0.0000   0.2531
  -1.300  -0.2148   0.02146   0.01521   0.0023  0.9427  0.9120  -0.7387   0.0000   0.2562
  -1.200  -0.2080   0.02150   0.01523   0.0034  0.9398  0.9200  -0.7000   0.0000   0.2622
  -1.100  -0.1953   0.02160   0.01530   0.0034  0.9378  0.9274  -0.6542   0.0000   0.2631
  -1.000  -0.1786   0.02173   0.01538   0.0024  0.9364  0.9331  -0.6050   0.0000   0.2591
  -0.900  -0.1681   0.02175   0.01537   0.0023  0.9334  0.9375  -0.5713   0.0000   0.2598
  -0.800  -0.1509   0.02184   0.01541   0.0010  0.9315  0.9405  -0.5307   0.0000   0.2524
  -0.700  -0.1318   0.02195   0.01547  -0.0007  0.9301  0.9434  -0.4971   0.0000   0.2400
  -0.600  -0.1196   0.02198   0.01547  -0.0012  0.9271  0.9466  -0.4723   0.0000   0.2354
  -0.500  -0.1017   0.02207   0.01553  -0.0028  0.9252  0.9492  -0.4433   0.0000   0.2181
  -0.400  -0.0822   0.02217   0.01559  -0.0047  0.9237  0.9516  -0.4157   0.0000   0.1884
  -0.300  -0.0670   0.02223   0.01563  -0.0058  0.9210  0.9539  -0.3948   0.0000   0.1589
  -0.200  -0.0508   0.02230   0.01565  -0.0071  0.9187  0.9567  -0.3732   0.0000   0.1054
  -0.100  -0.0285   0.02241   0.01573  -0.0095  0.9173  0.9580  -0.3478   0.0000  -0.0903
   0.000  -0.0114   0.02249   0.01579  -0.0110  0.9149  0.9601  -0.3452   0.0000  -0.7298
   0.100   0.0050   0.02254   0.01582  -0.0123  0.9123  0.9625  -0.3540   0.0000   2.7282
   0.200   0.0271   0.02264   0.01589  -0.0147  0.9107  0.9636  -0.3658   0.0000   0.7939
   0.300   0.0497   0.02272   0.01595  -0.0172  0.9094  0.9648  -0.3785   0.0000   0.5951
   0.400   0.0619   0.02276   0.01598  -0.0178  0.9057  0.9675  -0.3858   0.0000   0.5360
   0.500   0.0840   0.02283   0.01604  -0.0202  0.9040  0.9685  -0.3982   0.0000   0.4886
   0.600   0.1075   0.02290   0.01609  -0.0229  0.9027  0.9694  -0.4118   0.0000   0.4604
   0.700   0.1210   0.02294   0.01613  -0.0237  0.8992  0.9719  -0.4203   0.0000   0.4434
   0.800   0.1425   0.02299   0.01617  -0.0260  0.8971  0.9728  -0.4334   0.0000   0.4299
   0.900   0.1656   0.02303   0.01620  -0.0285  0.8957  0.9736  -0.4479   0.0000   0.4197
   1.000   0.1816   0.02307   0.01624  -0.0298  0.8927  0.9756  -0.4587   0.0000   0.4115
   1.100   0.2006   0.02309   0.01627  -0.0316  0.8900  0.9769  -0.4719   0.0000   0.4049
   1.200   0.2230   0.02309   0.01627  -0.0340  0.8884  0.9777  -0.4872   0.0000   0.3997
   1.300   0.2466   0.02307   0.01625  -0.0366  0.8872  0.9784  -0.5041   0.0000   0.3954
   1.400   0.2583   0.02311   0.01631  -0.0371  0.8827  0.9808  -0.5139   0.0000   0.3906
   1.500   0.2808   0.02307   0.01628  -0.0395  0.8809  0.9815  -0.5310   0.0000   0.3874
   1.600   0.3046   0.02301   0.01623  -0.0420  0.8796  0.9821  -0.5493   0.0000   0.3847
   1.700   0.3169   0.02304   0.01627  -0.0426  0.8750  0.9844  -0.5608   0.0000   0.3812
   1.800   0.3391   0.02296   0.01622  -0.0449  0.8731  0.9851  -0.5808   0.0000   0.3790
   1.900   0.3632   0.02286   0.01614  -0.0474  0.8719  0.9856  -0.6032   0.0000   0.3772
   2.000   0.3765   0.02286   0.01617  -0.0482  0.8674  0.9877  -0.6186   0.0000   0.3745
   2.100   0.3987   0.02275   0.01608  -0.0504  0.8653  0.9883  -0.6421   0.0000   0.3729
   2.200   0.4233   0.02258   0.01594  -0.0530  0.8640  0.9887  -0.6682   0.0000   0.3716
   2.300   0.4494   0.02237   0.01577  -0.0558  0.8630  0.9887  -0.6975   0.0000   0.3705
   2.400   0.4602   0.02238   0.01581  -0.0560  0.8574  0.9911  -0.7142   0.0000   0.3681
   2.500   0.4851   0.02214   0.01561  -0.0586  0.8560  0.9912  -0.7452   0.0000   0.3670
   2.600   0.5098   0.02184   0.01535  -0.0610  0.8548  0.9914  -0.7773   0.0000   0.3659
   2.700   0.5220   0.02180   0.01535  -0.0614  0.8492  0.9935  -0.7978   0.0000   0.3638
   2.800   0.5454   0.02147   0.01507  -0.0635  0.8475  0.9938  -0.8330   0.0000   0.3626
   2.900   0.5675   0.02114   0.01478  -0.0654  0.8454  0.9944  -0.8683   0.0000   0.3613
   3.000   0.5822   0.02100   0.01469  -0.0662  0.8403  0.9960  -0.8962   0.0000   0.3596
   3.100   0.6050   0.02058   0.01432  -0.0680  0.8384  0.9964  -0.9364   0.0000   0.3584
   3.200   0.6201   0.02039   0.01418  -0.0688  0.8333  0.9979  -0.9684   0.0000   0.3568
   3.300   0.6409   0.01997   0.01381  -0.0703  0.8305  0.9985  -1.0104   0.0000   0.3554
   3.400   0.6636   0.01944   0.01333  -0.0720  0.8285  0.9988  -1.0655   0.0000   0.3542
   3.500   0.6738   0.01929   0.01323  -0.0718  0.8220  1.0000  -1.1015   0.0000   0.3521
   3.600   0.6936   0.01875   0.01275  -0.0728  0.8195  1.0000  -1.1673   0.0000   0.3506
   3.700   0.6970   0.01866   0.01270  -0.0713  0.8127  1.0000  -1.2016   0.0000   0.3478
   3.800   0.7094   0.01832   0.01239  -0.0712  0.8082  1.0000  -1.2583   0.0000   0.3458
   3.900   0.7197   0.01803   0.01214  -0.0707  0.8029  1.0000  -1.3105   0.0000   0.3436
   4.000   0.7280   0.01779   0.01194  -0.0700  0.7971  1.0000  -1.3582   0.0000   0.3413
   4.100   0.7420   0.01739   0.01158  -0.0700  0.7925  1.0000  -1.4214   0.0000   0.3396
   4.200   0.7480   0.01722   0.01145  -0.0689  0.7857  1.0000  -1.4679   0.0000   0.3372
   4.300   0.7619   0.01682   0.01110  -0.0690  0.7808  1.0000  -1.5379   0.0000   0.3355
   4.400   0.7691   0.01661   0.01093  -0.0680  0.7737  1.0000  -1.5890   0.0000   0.3333
   4.500   0.7759   0.01642   0.01078  -0.0669  0.7663  1.0000  -1.6395   0.0000   0.3311
   4.600   0.7858   0.01615   0.01054  -0.0664  0.7593  1.0000  -1.6997   0.0000   0.3292
   4.700   0.7975   0.01583   0.01025  -0.0661  0.7522  1.0000  -1.7678   0.0000   0.3275
   4.800   0.8035   0.01567   0.01013  -0.0649  0.7433  1.0000  -1.8222   0.0000   0.3253
   4.900   0.8103   0.01550   0.00999  -0.0639  0.7340  1.0000  -1.8796   0.0000   0.3232
   5.000   0.8174   0.01533   0.00984  -0.0629  0.7240  1.0000  -1.9386   0.0000   0.3212
   5.100   0.8250   0.01515   0.00969  -0.0619  0.7132  1.0000  -1.9999   0.0000   0.3193
   5.200   0.8329   0.01498   0.00954  -0.0611  0.7016  1.0000  -2.0628   0.0000   0.3175
   5.300   0.8402   0.01485   0.00941  -0.0601  0.6887  1.0000  -2.1239   0.0000   0.3156
   5.400   0.8457   0.01476   0.00933  -0.0589  0.6744  1.0000  -2.1792   0.0000   0.3135
   5.500   0.8529   0.01466   0.00920  -0.0579  0.6589  1.0000  -2.2446   0.0000   0.3117
   5.600   0.8585   0.01460   0.00913  -0.0566  0.6420  1.0000  -2.3067   0.0000   0.3097
   5.700   0.8649   0.01456   0.00903  -0.0555  0.6232  1.0000  -2.3727   0.0000   0.3078
   5.800   0.8695   0.01457   0.00898  -0.0541  0.6029  1.0000  -2.4319   0.0000   0.3058
   5.900   0.8734   0.01462   0.00895  -0.0526  0.5812  1.0000  -2.4893   0.0000   0.3037
   6.000   0.8763   0.01471   0.00894  -0.0510  0.5587  1.0000  -2.5429   0.0000   0.3015
   6.100   0.8780   0.01483   0.00897  -0.0491  0.5360  1.0000  -2.5922   0.0000   0.2992
   6.200   0.8787   0.01498   0.00901  -0.0472  0.5136  1.0000  -2.6374   0.0000   0.2967
   6.300   0.8784   0.01515   0.00907  -0.0450  0.4916  1.0000  -2.6793   0.0000   0.2942
   6.400   0.8777   0.01535   0.00914  -0.0429  0.4698  1.0000  -2.7192   0.0000   0.2917
   6.500   0.8773   0.01557   0.00924  -0.0408  0.4472  1.0000  -2.7606   0.0000   0.2893
   6.600   0.8778   0.01583   0.00936  -0.0390  0.4231  1.0000  -2.8052   0.0000   0.2870
   6.700   0.8789   0.01613   0.00952  -0.0373  0.3980  1.0000  -2.8524   0.0000   0.2849
   6.800   0.8804   0.01647   0.00971  -0.0357  0.3723  1.0000  -2.9010   0.0000   0.2830
   6.900   0.8823   0.01683   0.00993  -0.0343  0.3458  1.0000  -2.9510   0.0000   0.2811
   7.000   0.8843   0.01723   0.01017  -0.0329  0.3194  1.0000  -3.0011   0.0000   0.2793
   7.100   0.8863   0.01765   0.01044  -0.0316  0.2934  1.0000  -3.0514   0.0000   0.2776
   7.200   0.8887   0.01810   0.01073  -0.0303  0.2677  1.0000  -3.1023   0.0000   0.2760
   7.300   0.8909   0.01858   0.01104  -0.0290  0.2438  1.0000  -3.1524   0.0000   0.2744
   7.400   0.8934   0.01905   0.01137  -0.0278  0.2207  1.0000  -3.2029   0.0000   0.2728
   7.500   0.8956   0.01955   0.01173  -0.0266  0.1997  1.0000  -3.2518   0.0000   0.2712
   7.600   0.8980   0.02007   0.01211  -0.0254  0.1803  1.0000  -3.3001   0.0000   0.2697
   7.700   0.9006   0.02061   0.01252  -0.0243  0.1625  1.0000  -3.3478   0.0000   0.2683
   7.800   0.9033   0.02118   0.01296  -0.0232  0.1463  1.0000  -3.3959   0.0000   0.2668
   7.900   0.9061   0.02177   0.01343  -0.0221  0.1320  1.0000  -3.4470   0.0000   0.2654
   8.000   0.9088   0.02239   0.01391  -0.0210  0.1202  1.0000  -3.4978   0.0000   0.2641
   8.100   0.9125   0.02297   0.01442  -0.0201  0.1087  1.0000  -3.5490   0.0000   0.2628
   8.200   0.9162   0.02356   0.01493  -0.0191  0.0999  1.0000  -3.6008   0.0000   0.2615
   8.300   0.9202   0.02416   0.01545  -0.0182  0.0925  1.0000  -3.6535   0.0000   0.2604
   8.400   0.9248   0.02473   0.01598  -0.0174  0.0861  1.0000  -3.7079   0.0000   0.2593
   8.500   0.9299   0.02530   0.01652  -0.0167  0.0805  1.0000  -3.7630   0.0000   0.2582
   8.600   0.9355   0.02590   0.01709  -0.0160  0.0760  1.0000  -3.8181   0.0000   0.2573
   8.700   0.9411   0.02654   0.01762  -0.0154  0.0724  1.0000  -3.8800   0.0000   0.2564
   8.800   0.9482   0.02706   0.01820  -0.0149  0.0684  1.0000  -3.9382   0.0000   0.2556
   8.900   0.9553   0.02768   0.01876  -0.0144  0.0653  1.0000  -4.0027   0.0000   0.2549
   9.000   0.9627   0.02821   0.01930  -0.0140  0.0622  1.0000  -4.0690   0.0000   0.2543
   9.100   0.9716   0.02887   0.01993  -0.0138  0.0597  1.0000  -4.1367   0.0000   0.2538
   9.200   0.9813   0.02950   0.02058  -0.0136  0.0574  1.0000  -4.2030   0.0000   0.2534
   9.300   0.9937   0.03028   0.02123  -0.0140  0.0554  1.0000  -4.2903   0.0000   0.2535
   9.400   1.0032   0.03091   0.02200  -0.0138  0.0534  1.0000  -4.3471   0.0000   0.2530
   9.500   1.0135   0.03153   0.02261  -0.0138  0.0514  1.0000  -4.4334   0.0000   0.2528
   9.600   1.0254   0.03233   0.02340  -0.0141  0.0496  1.0000  -4.5275   0.0000   0.2528
   9.700   1.0352   0.03304   0.02423  -0.0139  0.0480  1.0000  -4.6015   0.0000   0.2524
   9.800   1.0486   0.03386   0.02505  -0.0144  0.0467  1.0000  -4.6994   0.0000   0.2526
   9.900   1.0690   0.03512   0.02621  -0.0161  0.0454  1.0000  -4.8297   0.0000   0.2538
  10.000   1.0777   0.03606   0.02737  -0.0157  0.0446  1.0000  -4.8787   0.0000   0.2532
  10.100   1.0863   0.03702   0.02850  -0.0154  0.0438  1.0000  -4.9333   0.0000   0.2526
  10.200   1.0946   0.03791   0.02950  -0.0150  0.0428  1.0000  -4.9978   0.0000   0.2521
  10.300   1.1041   0.03869   0.03029  -0.0150  0.0418  1.0000  -5.0873   0.0000   0.2519
  10.400   1.1192   0.03985   0.03133  -0.0161  0.0407  1.0000  -5.2131   0.0000   0.2525
  10.500   1.1207   0.04072   0.03247  -0.0147  0.0402  1.0000  -5.2306   0.0000   0.2511
  10.600   1.1239   0.04175   0.03371  -0.0137  0.0397  1.0000  -5.2556   0.0000   0.2500
  10.700   1.1283   0.04292   0.03507  -0.0128  0.0394  1.0000  -5.2837   0.0000   0.2491
  10.800   1.1322   0.04415   0.03648  -0.0120  0.0392  1.0000  -5.3090   0.0000   0.2482
  10.900   1.1353   0.04541   0.03791  -0.0110  0.0390  1.0000  -5.3299   0.0000   0.2472
  11.000   1.1374   0.04670   0.03936  -0.0100  0.0389  1.0000  -5.3460   0.0000   0.2462
  11.100   1.1383   0.04798   0.04081  -0.0088  0.0388  1.0000  -5.3565   0.0000   0.2450
  11.200   1.1377   0.04928   0.04229  -0.0075  0.0388  1.0000  -5.3594   0.0000   0.2438
  11.300   1.1361   0.05061   0.04378  -0.0061  0.0389  1.0000  -5.3572   0.0000   0.2424
  11.400   1.1337   0.05197   0.04529  -0.0046  0.0390  1.0000  -5.3511   0.0000   0.2410
  11.500   1.1306   0.05334   0.04682  -0.0032  0.0391  1.0000  -5.3421   0.0000   0.2396
  11.600   1.1268   0.05473   0.04835  -0.0017  0.0392  1.0000  -5.3311   0.0000   0.2383
  11.700   1.1226   0.05613   0.04988  -0.0003  0.0393  1.0000  -5.3190   0.0000   0.2369
  11.800   1.1180   0.05753   0.05142   0.0010  0.0395  1.0000  -5.3065   0.0000   0.2355
  11.900   1.1130   0.05895   0.05295   0.0023  0.0396  1.0000  -5.2937   0.0000   0.2342
  12.000   1.1077   0.06038   0.05450   0.0035  0.0397  1.0000  -5.2805   0.0000   0.2330
  12.100   1.1022   0.06182   0.05605   0.0047  0.0398  1.0000  -5.2669   0.0000   0.2318
  12.200   1.0963   0.06329   0.05762   0.0057  0.0399  1.0000  -5.2530   0.0000   0.2306
  12.300   1.0903   0.06478   0.05921   0.0067  0.0400  1.0000  -5.2388   0.0000   0.2296
  12.400   1.0842   0.06630   0.06082   0.0076  0.0401  1.0000  -5.2243   0.0000   0.2286
  12.500   1.0779   0.06785   0.06246   0.0084  0.0402  1.0000  -5.2097   0.0000   0.2276
  12.600   1.0716   0.06944   0.06414   0.0090  0.0403  1.0000  -5.1950   0.0000   0.2268
  12.700   1.0653   0.07107   0.06584   0.0096  0.0404  1.0000  -5.1822   0.0000   0.2260
  12.800   1.0591   0.07273   0.06758   0.0101  0.0405  1.0000  -5.1714   0.0000   0.2254
  12.900   1.0530   0.07444   0.06936   0.0105  0.0405  1.0000  -5.1610   0.0000   0.2248
  13.000   1.0471   0.07619   0.07117   0.0107  0.0406  1.0000  -5.1512   0.0000   0.2243
  13.100   1.0415   0.07797   0.07301   0.0109  0.0407  1.0000  -5.1424   0.0000   0.2240
  13.200   1.0362   0.07979   0.07489   0.0110  0.0407  1.0000  -5.1350   0.0000   0.2237
  19.700   0.5671   0.19364   0.18993  -0.0377  0.0556  1.0000  -1.3621   0.0000   0.3014
  19.800   0.5642   0.19460   0.19087  -0.0390  0.0554  1.0000  -1.3115   0.0000   0.3039
  19.900   0.5621   0.19567   0.19194  -0.0402  0.0549  1.0000  -1.2634   0.0000   0.3064
  20.000   0.5621   0.19689   0.19315  -0.0411  0.0541  1.0000  -1.2397   0.0000   0.3079


