xflr5 v6.32

 Calculated polar for: finalfoil mod1

 1 1 Reynolds number fixed          Mach number fixed         

 xtrf =   1.000 (top)        1.000 (bottom)
 Mach =   0.000     Re =     0.160 e 6     Ncrit =   9.000

  alpha     CL        CD       CDp       Cm    Top Xtr Bot Xtr   Cpmin    Chinge    XCp    
 ------- -------- --------- --------- -------- ------- ------- -------- --------- ---------
 -11.900  -0.4654   0.11996   0.11586  -0.0429  1.0000  0.0656  -2.0002   0.0000   0.1429
 -11.800  -0.4807   0.11635   0.11232  -0.0472  1.0000  0.0662  -2.1643   0.0000   0.1373
  -7.300  -0.7640   0.04113   0.03483  -0.0205  1.0000  0.0395  -4.0437   0.0000   0.2160
  -7.200  -0.7566   0.04050   0.03434  -0.0205  1.0000  0.0402  -3.9399   0.0000   0.2159
  -7.100  -0.7512   0.03881   0.03245  -0.0195  1.0000  0.0382  -3.9839   0.0000   0.2170
  -7.000  -0.7458   0.03741   0.03091  -0.0189  1.0000  0.0373  -3.9863   0.0000   0.2177
  -6.900  -0.7407   0.03453   0.02717  -0.0173  0.9997  0.0345  -4.2040   0.0000   0.2196
  -6.800  -0.7292   0.03332   0.02584  -0.0177  0.9989  0.0344  -4.1688   0.0000   0.2188
  -6.700  -0.7175   0.03217   0.02453  -0.0180  0.9981  0.0343  -4.1371   0.0000   0.2180
  -6.600  -0.7056   0.03112   0.02330  -0.0182  0.9972  0.0343  -4.1049   0.0000   0.2172
  -6.500  -0.6935   0.03025   0.02215  -0.0185  0.9962  0.0346  -4.0780   0.0000   0.2165
  -6.400  -0.6815   0.02937   0.02134  -0.0190  0.9954  0.0354  -3.9882   0.0000   0.2152
  -6.300  -0.6692   0.02886   0.02086  -0.0196  0.9945  0.0364  -3.8916   0.0000   0.2139
  -6.200  -0.6567   0.02824   0.02012  -0.0200  0.9935  0.0372  -3.8264   0.0000   0.2127
  -6.100  -0.6439   0.02753   0.01927  -0.0204  0.9926  0.0379  -3.7751   0.0000   0.2116
  -6.000  -0.6315   0.02682   0.01842  -0.0206  0.9916  0.0384  -3.7288   0.0000   0.2107
  -5.900  -0.6184   0.02617   0.01761  -0.0208  0.9907  0.0389  -3.6805   0.0000   0.2096
  -5.800  -0.6058   0.02551   0.01688  -0.0211  0.9898  0.0395  -3.6252   0.0000   0.2085
  -5.700  -0.5939   0.02490   0.01632  -0.0214  0.9888  0.0404  -3.5459   0.0000   0.2072
  -5.600  -0.5811   0.02442   0.01586  -0.0219  0.9879  0.0415  -3.4675   0.0000   0.2057
  -5.500  -0.5690   0.02397   0.01536  -0.0221  0.9868  0.0428  -3.3999   0.0000   0.2045
  -5.400  -0.5570   0.02352   0.01486  -0.0224  0.9857  0.0446  -3.3321   0.0000   0.2033
  -5.300  -0.5446   0.02315   0.01455  -0.0229  0.9848  0.0469  -3.2391   0.0000   0.2014
  -5.200  -0.5329   0.02280   0.01413  -0.0231  0.9836  0.0495  -3.1699   0.0000   0.2001
  -5.100  -0.5216   0.02237   0.01378  -0.0235  0.9824  0.0520  -3.1029   0.0000   0.1985
  -5.000  -0.5088   0.02197   0.01335  -0.0239  0.9813  0.0551  -3.0512   0.0000   0.1966
  -4.900  -0.4976   0.02160   0.01303  -0.0242  0.9800  0.0590  -2.9861   0.0000   0.1949
  -4.800  -0.4859   0.02123   0.01272  -0.0246  0.9786  0.0641  -2.9208   0.0000   0.1930
  -4.700  -0.4729   0.02085   0.01237  -0.0252  0.9775  0.0709  -2.8560   0.0000   0.1903
  -4.600  -0.4619   0.02045   0.01202  -0.0255  0.9760  0.0794  -2.7978   0.0000   0.1885
  -4.500  -0.4504   0.02003   0.01169  -0.0259  0.9747  0.0926  -2.7347   0.0000   0.1862
  -4.400  -0.4380   0.01949   0.01134  -0.0266  0.9737  0.1157  -2.6686   0.0000   0.1831
  -4.300  -0.4268   0.01882   0.01098  -0.0271  0.9725  0.1585  -2.6023   0.0000   0.1801
  -4.200  -0.4168   0.01812   0.01069  -0.0276  0.9711  0.2248  -2.5313   0.0000   0.1775
  -4.100  -0.4062   0.01727   0.01042  -0.0284  0.9701  0.3313  -2.4517   0.0000   0.1738
  -4.000  -0.3961   0.01642   0.01034  -0.0288  0.9694  0.4782  -2.3697   0.0000   0.1710
  -3.900  -0.3869   0.01615   0.01058  -0.0283  0.9682  0.5807  -2.2879   0.0000   0.1706
  -3.800  -0.3783   0.01620   0.01081  -0.0275  0.9663  0.6347  -2.2094   0.0000   0.1711
  -3.700  -0.3670   0.01638   0.01108  -0.0272  0.9648  0.6707  -2.1205   0.0000   0.1697
  -3.600  -0.3566   0.01660   0.01131  -0.0268  0.9631  0.6950  -2.0359   0.0000   0.1687
  -3.500  -0.3468   0.01681   0.01149  -0.0263  0.9611  0.7142  -1.9548   0.0000   0.1680
  -3.400  -0.3350   0.01709   0.01175  -0.0262  0.9596  0.7296  -1.8657   0.0000   0.1659
  -3.300  -0.3255   0.01732   0.01195  -0.0256  0.9575  0.7420  -1.7871   0.0000   0.1654
  -3.200  -0.3153   0.01756   0.01216  -0.0251  0.9556  0.7529  -1.7065   0.0000   0.1643
  -3.100  -0.3031   0.01782   0.01239  -0.0250  0.9541  0.7630  -1.6191   0.0000   0.1613
  -3.000  -0.2949   0.01802   0.01255  -0.0242  0.9519  0.7713  -1.5519   0.0000   0.1618
  -2.900  -0.2846   0.01822   0.01271  -0.0239  0.9500  0.7799  -1.4817   0.0000   0.1600
  -2.800  -0.2722   0.01843   0.01287  -0.0239  0.9486  0.7881  -1.4057   0.0000   0.1560
  -2.700  -0.2650   0.01859   0.01302  -0.0229  0.9462  0.7937  -1.3468   0.0000   0.1577
  -2.600  -0.2546   0.01873   0.01313  -0.0226  0.9443  0.8008  -1.2792   0.0000   0.1553
  -2.500  -0.2423   0.01890   0.01326  -0.0225  0.9428  0.8073  -1.2064   0.0000   0.1509
  -2.400  -0.2348   0.01902   0.01335  -0.0216  0.9404  0.8128  -1.1492   0.0000   0.1519
  -2.300  -0.2244   0.01912   0.01341  -0.0215  0.9384  0.8197  -1.0843   0.0000   0.1483
  -2.200  -0.2132   0.01926   0.01354  -0.0211  0.9369  0.8244  -1.0171   0.0000   0.1449
  -2.100  -0.2045   0.01933   0.01358  -0.0206  0.9346  0.8305  -0.9595   0.0000   0.1432
  -2.000  -0.1960   0.01943   0.01365  -0.0198  0.9323  0.8352  -0.9022   0.0000   0.1427
  -1.900  -0.1837   0.01951   0.01369  -0.0200  0.9308  0.8409  -0.8354   0.0000   0.1351
  -1.800  -0.1753   0.01958   0.01375  -0.0192  0.9285  0.8457  -0.7845   0.0000   0.1341
  -1.700  -0.1672   0.01964   0.01379  -0.0185  0.9260  0.8514  -0.7401   0.0000   0.1333
  -1.600  -0.1562   0.01973   0.01385  -0.0182  0.9244  0.8587  -0.6924   0.0000   0.1271
  -1.500  -0.1493   0.01981   0.01393  -0.0169  0.9222  0.8647  -0.6567   0.0000   0.1304
  -1.400  -0.1437   0.01986   0.01398  -0.0155  0.9194  0.8714  -0.6266   0.0000   0.1358
  -1.300  -0.1338   0.01993   0.01403  -0.0149  0.9177  0.8785  -0.5892   0.0000   0.1322
  -1.200  -0.1247   0.01997   0.01404  -0.0143  0.9157  0.8852  -0.5586   0.0000   0.1292
  -1.100  -0.1194   0.01999   0.01406  -0.0129  0.9127  0.8901  -0.5345   0.0000   0.1359
  -1.000  -0.1072   0.01999   0.01403  -0.0131  0.9109  0.8947  -0.5067   0.0000   0.1218
  -0.900  -0.0927   0.02001   0.01403  -0.0136  0.9097  0.8976  -0.4788   0.0000   0.0965
  -0.700  -0.0752   0.01999   0.01397  -0.0129  0.9042  0.9047  -0.4387   0.0000   0.0724
  -0.600  -0.0603   0.01999   0.01394  -0.0136  0.9028  0.9075  -0.4149   0.0000   0.0172
  -0.500  -0.0536   0.01998   0.01391  -0.0129  0.8996  0.9111  -0.4011   0.0000   0.0023
  -0.400  -0.0418   0.01997   0.01388  -0.0131  0.8974  0.9139  -0.3829   0.0000  -0.0707
  -0.300  -0.0271   0.01996   0.01385  -0.0138  0.8959  0.9168  -0.3626   0.0000  -0.2694
  -0.200  -0.0147   0.01996   0.01383  -0.0141  0.8938  0.9193  -0.3453   0.0000  -0.7217
  -0.100  -0.0067   0.01995   0.01381  -0.0136  0.8905  0.9225  -0.3494   0.0000  -1.8201
   0.000   0.0076   0.01993   0.01377  -0.0143  0.8888  0.9253  -0.3574   0.0000   2.1462
   0.100   0.0247   0.01992   0.01375  -0.0155  0.8876  0.9270  -0.3670   0.0000   0.8779
   0.200   0.0308   0.01992   0.01374  -0.0147  0.8837  0.9306  -0.3710   0.0000   0.7262
   0.300   0.0448   0.01991   0.01370  -0.0153  0.8817  0.9329  -0.3797   0.0000   0.5901
   0.400   0.0620   0.01989   0.01368  -0.0165  0.8804  0.9346  -0.3900   0.0000   0.5141
   0.500   0.0801   0.01987   0.01364  -0.0179  0.8794  0.9364  -0.4008   0.0000   0.4707
   0.600   0.0849   0.01988   0.01366  -0.0169  0.8748  0.9400  -0.4047   0.0000   0.4460
   0.700   0.1018   0.01986   0.01363  -0.0180  0.8732  0.9418  -0.4153   0.0000   0.4243
   0.800   0.1198   0.01983   0.01358  -0.0194  0.8720  0.9435  -0.4267   0.0000   0.4089
   0.900   0.1296   0.01984   0.01360  -0.0193  0.8685  0.9463  -0.4338   0.0000   0.3959
   1.000   0.1449   0.01983   0.01359  -0.0202  0.8662  0.9482  -0.4443   0.0000   0.3863
   1.100   0.1626   0.01979   0.01354  -0.0215  0.8647  0.9499  -0.4562   0.0000   0.3792
   1.200   0.1818   0.01973   0.01348  -0.0231  0.8637  0.9512  -0.4699   0.0000   0.3738
   1.400   0.2097   0.01972   0.01349  -0.0245  0.8577  0.9550  -0.4915   0.0000   0.3634
   1.500   0.2285   0.01964   0.01341  -0.0260  0.8563  0.9564  -0.5059   0.0000   0.3602
   1.600   0.2499   0.01955   0.01333  -0.0280  0.8554  0.9570  -0.5223   0.0000   0.3584
   1.700   0.2711   0.01947   0.01326  -0.0299  0.8542  0.9576  -0.5390   0.0000   0.3568
   1.800   0.2804   0.01952   0.01332  -0.0298  0.8495  0.9602  -0.5483   0.0000   0.3527
   1.900   0.3008   0.01941   0.01322  -0.0316  0.8482  0.9611  -0.5660   0.0000   0.3514
   2.000   0.3220   0.01926   0.01309  -0.0335  0.8472  0.9618  -0.5860   0.0000   0.3502
   2.100   0.3437   0.01909   0.01295  -0.0354  0.8464  0.9622  -0.6069   0.0000   0.3493
   2.200   0.3552   0.01914   0.01302  -0.0357  0.8415  0.9642  -0.6218   0.0000   0.3468
   2.300   0.3754   0.01898   0.01288  -0.0374  0.8399  0.9649  -0.6439   0.0000   0.3458
   2.400   0.3963   0.01878   0.01270  -0.0391  0.8387  0.9654  -0.6675   0.0000   0.3449
   2.500   0.4178   0.01855   0.01249  -0.0410  0.8378  0.9658  -0.6931   0.0000   0.3441
   2.700   0.4494   0.01833   0.01233  -0.0428  0.8310  0.9685  -0.7370   0.0000   0.3412
   2.800   0.4712   0.01805   0.01209  -0.0446  0.8298  0.9688  -0.7665   0.0000   0.3407
   2.900   0.4934   0.01775   0.01181  -0.0465  0.8286  0.9690  -0.7971   0.0000   0.3402
   3.000   0.5036   0.01772   0.01182  -0.0465  0.8231  0.9714  -0.8179   0.0000   0.3381
   3.100   0.5239   0.01743   0.01156  -0.0480  0.8212  0.9719  -0.8506   0.0000   0.3374
   3.200   0.5455   0.01708   0.01125  -0.0497  0.8198  0.9721  -0.8867   0.0000   0.3368
   3.300   0.5594   0.01699   0.01121  -0.0503  0.8144  0.9736  -0.9142   0.0000   0.3355
   3.400   0.5792   0.01666   0.01091  -0.0516  0.8119  0.9741  -0.9524   0.0000   0.3348
   3.500   0.5965   0.01638   0.01066  -0.0526  0.8086  0.9752  -0.9886   0.0000   0.3337
   3.600   0.6114   0.01616   0.01049  -0.0532  0.8038  0.9766  -1.0245   0.0000   0.3325
   3.700   0.6319   0.01577   0.01012  -0.0546  0.8012  0.9770  -1.0782   0.0000   0.3318
   3.800   0.6451   0.01563   0.01004  -0.0550  0.7950  0.9786  -1.1224   0.0000   0.3305
   3.900   0.6639   0.01526   0.00970  -0.0561  0.7918  0.9793  -1.1915   0.0000   0.3297
   4.000   0.6771   0.01511   0.00960  -0.0564  0.7851  0.9810  -1.2494   0.0000   0.3285
   4.100   0.6946   0.01481   0.00933  -0.0574  0.7805  0.9820  -1.3190   0.0000   0.3277
   4.200   0.7081   0.01462   0.00918  -0.0577  0.7739  0.9837  -1.3794   0.0000   0.3265
   4.300   0.7232   0.01443   0.00904  -0.0584  0.7670  0.9850  -1.4477   0.0000   0.3257
   4.400   0.7390   0.01418   0.00883  -0.0591  0.7606  0.9863  -1.5221   0.0000   0.3248
   4.500   0.7539   0.01398   0.00866  -0.0596  0.7528  0.9877  -1.5946   0.0000   0.3239
   4.600   0.7679   0.01382   0.00854  -0.0601  0.7438  0.9894  -1.6653   0.0000   0.3230
   4.700   0.7822   0.01366   0.00841  -0.0606  0.7340  0.9909  -1.7383   0.0000   0.3221
   4.800   0.7963   0.01351   0.00828  -0.0611  0.7232  0.9926  -1.8179   0.0000   0.3212
   4.900   0.8112   0.01335   0.00814  -0.0617  0.7113  0.9940  -1.9012   0.0000   0.3204
   5.000   0.8246   0.01326   0.00806  -0.0621  0.6970  0.9957  -1.9806   0.0000   0.3196
   5.100   0.8384   0.01316   0.00797  -0.0625  0.6814  0.9972  -2.0624   0.0000   0.3187
   5.200   0.8520   0.01309   0.00789  -0.0629  0.6632  0.9989  -2.1442   0.0000   0.3179
   5.300   0.8633   0.01306   0.00781  -0.0628  0.6435  1.0000  -2.2227   0.0000   0.3168
   5.400   0.8695   0.01307   0.00776  -0.0618  0.6241  1.0000  -2.2871   0.0000   0.3150
   5.500   0.8744   0.01313   0.00774  -0.0605  0.6029  1.0000  -2.3474   0.0000   0.3130
   5.600   0.8788   0.01322   0.00774  -0.0592  0.5803  1.0000  -2.4058   0.0000   0.3111
   5.700   0.8821   0.01335   0.00776  -0.0577  0.5570  1.0000  -2.4604   0.0000   0.3090
   5.800   0.8842   0.01351   0.00781  -0.0560  0.5337  1.0000  -2.5112   0.0000   0.3068
   5.900   0.8854   0.01370   0.00788  -0.0542  0.5107  1.0000  -2.5582   0.0000   0.3045
   6.000   0.8856   0.01389   0.00797  -0.0522  0.4883  1.0000  -2.6017   0.0000   0.3022
   6.100   0.8850   0.01409   0.00807  -0.0501  0.4669  1.0000  -2.6419   0.0000   0.2997
   6.200   0.8836   0.01429   0.00816  -0.0478  0.4465  1.0000  -2.6792   0.0000   0.2972
   6.300   0.8814   0.01448   0.00826  -0.0455  0.4274  1.0000  -2.7134   0.0000   0.2945
   6.400   0.8788   0.01467   0.00836  -0.0431  0.4087  1.0000  -2.7463   0.0000   0.2918
   6.500   0.8762   0.01486   0.00845  -0.0406  0.3904  1.0000  -2.7787   0.0000   0.2891
   6.600   0.8747   0.01509   0.00857  -0.0385  0.3708  1.0000  -2.8158   0.0000   0.2866
   6.700   0.8750   0.01536   0.00873  -0.0367  0.3487  1.0000  -2.8598   0.0000   0.2845
   6.800   0.8766   0.01568   0.00892  -0.0352  0.3251  1.0000  -2.9087   0.0000   0.2826
   6.900   0.8788   0.01603   0.00914  -0.0339  0.3008  1.0000  -2.9604   0.0000   0.2808
   7.000   0.8815   0.01641   0.00938  -0.0327  0.2769  1.0000  -3.0134   0.0000   0.2792
   7.100   0.8843   0.01681   0.00964  -0.0316  0.2536  1.0000  -3.0675   0.0000   0.2777
   7.200   0.8878   0.01722   0.00992  -0.0305  0.2304  1.0000  -3.1234   0.0000   0.2763
   7.300   0.8910   0.01764   0.01021  -0.0295  0.2089  1.0000  -3.1784   0.0000   0.2748
   7.400   0.8942   0.01808   0.01053  -0.0284  0.1890  1.0000  -3.2329   0.0000   0.2734
   7.500   0.8976   0.01853   0.01086  -0.0274  0.1704  1.0000  -3.2875   0.0000   0.2720
   7.600   0.9012   0.01901   0.01121  -0.0264  0.1531  1.0000  -3.3415   0.0000   0.2707
   7.700   0.9048   0.01951   0.01160  -0.0254  0.1370  1.0000  -3.3945   0.0000   0.2694
   7.800   0.9085   0.02003   0.01201  -0.0245  0.1223  1.0000  -3.4528   0.0000   0.2681
   7.900   0.9121   0.02057   0.01245  -0.0235  0.1095  1.0000  -3.5092   0.0000   0.2668
   8.000   0.9156   0.02112   0.01290  -0.0226  0.0991  1.0000  -3.5647   0.0000   0.2656
   8.100   0.9196   0.02167   0.01338  -0.0217  0.0899  1.0000  -3.6195   0.0000   0.2643
   8.200   0.9238   0.02221   0.01386  -0.0208  0.0823  1.0000  -3.6750   0.0000   0.2632
   8.300   0.9280   0.02275   0.01436  -0.0199  0.0764  1.0000  -3.7302   0.0000   0.2620
   8.400   0.9322   0.02330   0.01486  -0.0191  0.0718  1.0000  -3.7862   0.0000   0.2609
   8.500   0.9372   0.02382   0.01534  -0.0183  0.0674  1.0000  -3.8451   0.0000   0.2599
   8.600   0.9426   0.02433   0.01587  -0.0176  0.0635  1.0000  -3.9032   0.0000   0.2589
   8.700   0.9474   0.02489   0.01636  -0.0169  0.0606  1.0000  -3.9650   0.0000   0.2579
   8.800   0.9537   0.02536   0.01687  -0.0163  0.0574  1.0000  -4.0267   0.0000   0.2571
   8.900   0.9591   0.02598   0.01739  -0.0157  0.0554  1.0000  -4.0901   0.0000   0.2562
   9.000   0.9662   0.02648   0.01797  -0.0152  0.0530  1.0000  -4.1487   0.0000   0.2554
   9.100   0.9730   0.02703   0.01847  -0.0147  0.0512  1.0000  -4.2177   0.0000   0.2547
   9.200   0.9806   0.02763   0.01907  -0.0143  0.0493  1.0000  -4.2827   0.0000   0.2541
   9.300   0.9882   0.02813   0.01961  -0.0139  0.0474  1.0000  -4.3493   0.0000   0.2534
   9.400   0.9963   0.02871   0.02010  -0.0137  0.0458  1.0000  -4.4301   0.0000   0.2530
   9.500   1.0049   0.02930   0.02075  -0.0134  0.0442  1.0000  -4.4969   0.0000   0.2525
   9.600   1.0140   0.02987   0.02138  -0.0132  0.0428  1.0000  -4.5787   0.0000   0.2520
   9.700   1.0241   0.03049   0.02198  -0.0132  0.0417  1.0000  -4.6717   0.0000   0.2517
   9.800   1.0386   0.03137   0.02277  -0.0138  0.0406  1.0000  -4.7821   0.0000   0.2521
   9.900   1.0481   0.03206   0.02362  -0.0136  0.0396  1.0000  -4.8503   0.0000   0.2516
  10.000   1.0581   0.03276   0.02440  -0.0135  0.0386  1.0000  -4.9310   0.0000   0.2513
  10.100   1.0684   0.03340   0.02503  -0.0135  0.0375  1.0000  -5.0282   0.0000   0.2511
  10.200   1.0849   0.03439   0.02590  -0.0147  0.0363  1.0000  -5.1649   0.0000   0.2519
  10.300   1.0890   0.03504   0.02676  -0.0137  0.0356  1.0000  -5.2070   0.0000   0.2508
  10.400   1.0961   0.03584   0.02772  -0.0132  0.0349  1.0000  -5.2649   0.0000   0.2501
  10.500   1.1051   0.03676   0.02876  -0.0130  0.0343  1.0000  -5.3316   0.0000   0.2497
  10.600   1.1142   0.03770   0.02980  -0.0128  0.0338  1.0000  -5.4011   0.0000   0.2493
  10.700   1.1234   0.03864   0.03082  -0.0128  0.0333  1.0000  -5.4756   0.0000   0.2490
  10.800   1.1338   0.03963   0.03185  -0.0129  0.0329  1.0000  -5.5606   0.0000   0.2490
  10.900   1.1470   0.04084   0.03306  -0.0136  0.0324  1.0000  -5.6603   0.0000   0.2493
  11.000   1.1607   0.04252   0.03477  -0.0144  0.0321  1.0000  -5.7464   0.0000   0.2497
  11.100   1.1631   0.04363   0.03606  -0.0133  0.0320  1.0000  -5.7670   0.0000   0.2486
  11.200   1.1640   0.04471   0.03734  -0.0120  0.0319  1.0000  -5.7816   0.0000   0.2474
  11.300   1.1636   0.04579   0.03859  -0.0106  0.0318  1.0000  -5.7909   0.0000   0.2461
  11.400   1.1623   0.04689   0.03987  -0.0091  0.0317  1.0000  -5.7961   0.0000   0.2447
  11.500   1.1602   0.04800   0.04116  -0.0075  0.0316  1.0000  -5.7977   0.0000   0.2432
  11.600   1.1572   0.04912   0.04245  -0.0060  0.0315  1.0000  -5.7956   0.0000   0.2417
  11.700   1.1532   0.05027   0.04376  -0.0044  0.0314  1.0000  -5.7890   0.0000   0.2402
  11.800   1.1486   0.05144   0.04509  -0.0028  0.0313  1.0000  -5.7806   0.0000   0.2387
  11.900   1.1437   0.05264   0.04644  -0.0013  0.0312  1.0000  -5.7707   0.0000   0.2373
  12.000   1.1384   0.05388   0.04782   0.0002  0.0311  1.0000  -5.7594   0.0000   0.2359
  12.100   1.1328   0.05516   0.04924   0.0016  0.0310  1.0000  -5.7464   0.0000   0.2345
  12.200   1.1269   0.05648   0.05069   0.0029  0.0310  1.0000  -5.7319   0.0000   0.2332
  12.300   1.1207   0.05785   0.05218   0.0041  0.0310  1.0000  -5.7203   0.0000   0.2319
  12.400   1.1141   0.05926   0.05372   0.0052  0.0310  1.0000  -5.7069   0.0000   0.2307
  12.500   1.1073   0.06073   0.05530   0.0063  0.0310  1.0000  -5.6916   0.0000   0.2296
  12.600   1.1003   0.06225   0.05693   0.0072  0.0310  1.0000  -5.6747   0.0000   0.2285
  12.700   1.0931   0.06382   0.05861   0.0080  0.0311  1.0000  -5.6566   0.0000   0.2276
  12.800   1.0858   0.06543   0.06033   0.0087  0.0312  1.0000  -5.6378   0.0000   0.2267
  12.900   1.0785   0.06710   0.06209   0.0093  0.0312  1.0000  -5.6187   0.0000   0.2260
  13.000   1.0713   0.06882   0.06389   0.0097  0.0313  1.0000  -5.6000   0.0000   0.2253
  13.100   1.0642   0.07057   0.06573   0.0101  0.0314  1.0000  -5.5822   0.0000   0.2247
  13.200   1.0573   0.07236   0.06760   0.0103  0.0315  1.0000  -5.5649   0.0000   0.2243
  13.300   1.0505   0.07419   0.06950   0.0104  0.0316  1.0000  -5.5487   0.0000   0.2240
  13.400   1.0440   0.07606   0.07143   0.0104  0.0317  1.0000  -5.5339   0.0000   0.2237
  13.500   1.0379   0.07794   0.07338   0.0103  0.0318  1.0000  -5.5214   0.0000   0.2236
  13.600   1.0325   0.07985   0.07534   0.0101  0.0319  1.0000  -5.5124   0.0000   0.2235
  13.700   1.0281   0.08175   0.07728   0.0099  0.0319  1.0000  -5.5099   0.0000   0.2235
  13.800   1.0259   0.08359   0.07915   0.0098  0.0320  1.0000  -5.5205   0.0000   0.2235


