xflr5 v6.32

 Calculated polar for: finalfoil mod1

 1 1 Reynolds number fixed          Mach number fixed         

 xtrf =   1.000 (top)        1.000 (bottom)
 Mach =   0.000     Re =    15.000 e 6     Ncrit =   9.000

  alpha     CL        CD       CDp       Cm    Top Xtr Bot Xtr   Cpmin    Chinge    XCp    
 ------- -------- --------- --------- -------- ------- ------- -------- --------- ---------
 -15.000  -1.3353   0.01463   0.01094  -0.0598  0.9110  0.0014  -20.0586   0.0000   0.1875
 -14.900  -1.3274   0.01443   0.01071  -0.0596  0.9092  0.0015  -19.8571   0.0000   0.1876
 -14.800  -1.3192   0.01422   0.01049  -0.0593  0.9078  0.0015  -19.6552   0.0000   0.1876
 -14.700  -1.3109   0.01402   0.01027  -0.0591  0.9063  0.0015  -19.4551   0.0000   0.1877
 -14.600  -1.3026   0.01382   0.01005  -0.0588  0.9046  0.0015  -19.2578   0.0000   0.1878
 -14.500  -1.2943   0.01362   0.00982  -0.0586  0.9029  0.0015  -19.0650   0.0000   0.1878
 -14.400  -1.2860   0.01340   0.00959  -0.0584  0.9016  0.0016  -18.8797   0.0000   0.1879
 -14.300  -1.2777   0.01317   0.00934  -0.0581  0.9004  0.0017  -18.7111   0.0000   0.1880
 -14.200  -1.2693   0.01295   0.00911  -0.0579  0.8989  0.0018  -18.5256   0.0000   0.1880
 -14.100  -1.2605   0.01277   0.00893  -0.0577  0.8975  0.0019  -18.3176   0.0000   0.1880
 -14.000  -1.2515   0.01261   0.00875  -0.0575  0.8959  0.0019  -18.1022   0.0000   0.1880
 -13.900  -1.2424   0.01245   0.00859  -0.0574  0.8945  0.0020  -17.8831   0.0000   0.1879
 -13.800  -1.2330   0.01230   0.00844  -0.0573  0.8935  0.0020  -17.6616   0.0000   0.1878
 -13.700  -1.2236   0.01215   0.00829  -0.0572  0.8922  0.0021  -17.4392   0.0000   0.1877
 -13.600  -1.2141   0.01202   0.00815  -0.0571  0.8908  0.0021  -17.2168   0.0000   0.1875
 -13.500  -1.2046   0.01188   0.00801  -0.0570  0.8894  0.0021  -16.9947   0.0000   0.1874
 -13.400  -1.1950   0.01176   0.00788  -0.0569  0.8878  0.0022  -16.7729   0.0000   0.1873
 -13.300  -1.1853   0.01163   0.00775  -0.0568  0.8866  0.0022  -16.5508   0.0000   0.1871
 -13.200  -1.1755   0.01151   0.00762  -0.0568  0.8855  0.0022  -16.3287   0.0000   0.1869
 -13.100  -1.1656   0.01139   0.00750  -0.0567  0.8844  0.0022  -16.1075   0.0000   0.1867
 -13.000  -1.1558   0.01127   0.00737  -0.0566  0.8831  0.0023  -15.8869   0.0000   0.1865
 -12.900  -1.1459   0.01116   0.00726  -0.0566  0.8817  0.0023  -15.6673   0.0000   0.1862
 -12.800  -1.1360   0.01105   0.00714  -0.0565  0.8803  0.0023  -15.4485   0.0000   0.1860
 -12.700  -1.1260   0.01094   0.00703  -0.0565  0.8791  0.0023  -15.2302   0.0000   0.1857
 -12.600  -1.1159   0.01083   0.00691  -0.0565  0.8782  0.0023  -15.0121   0.0000   0.1854
 -12.500  -1.1057   0.01072   0.00680  -0.0565  0.8772  0.0023  -14.7950   0.0000   0.1851
 -12.400  -1.0956   0.01061   0.00669  -0.0564  0.8761  0.0023  -14.5790   0.0000   0.1848
 -12.300  -1.0854   0.01051   0.00659  -0.0564  0.8749  0.0024  -14.3642   0.0000   0.1845
 -12.200  -1.0753   0.01041   0.00648  -0.0564  0.8736  0.0024  -14.1507   0.0000   0.1842
 -12.100  -1.0651   0.01031   0.00638  -0.0564  0.8722  0.0024  -13.9384   0.0000   0.1838
 -12.000  -1.0548   0.01021   0.00628  -0.0563  0.8710  0.0024  -13.7267   0.0000   0.1835
 -11.900  -1.0445   0.01011   0.00618  -0.0563  0.8701  0.0024  -13.5157   0.0000   0.1831
 -11.800  -1.0342   0.01002   0.00608  -0.0563  0.8691  0.0024  -13.3060   0.0000   0.1827
 -11.700  -1.0238   0.00992   0.00598  -0.0563  0.8680  0.0024  -13.0976   0.0000   0.1822
 -11.600  -1.0135   0.00983   0.00588  -0.0563  0.8668  0.0024  -12.8905   0.0000   0.1818
 -11.500  -1.0031   0.00973   0.00578  -0.0563  0.8655  0.0024  -12.6848   0.0000   0.1814
 -11.400  -0.9927   0.00964   0.00569  -0.0563  0.8641  0.0024  -12.4805   0.0000   0.1809
 -11.300  -0.9823   0.00955   0.00560  -0.0563  0.8629  0.0024  -12.2772   0.0000   0.1804
 -11.200  -0.9718   0.00946   0.00550  -0.0564  0.8621  0.0024  -12.0745   0.0000   0.1799
 -11.100  -0.9613   0.00937   0.00541  -0.0564  0.8612  0.0024  -11.8733   0.0000   0.1794
 -11.000  -0.9507   0.00928   0.00532  -0.0564  0.8601  0.0024  -11.6735   0.0000   0.1788
 -10.900  -0.9402   0.00920   0.00523  -0.0564  0.8588  0.0024  -11.4753   0.0000   0.1783
 -10.800  -0.9297   0.00911   0.00515  -0.0564  0.8574  0.0024  -11.2786   0.0000   0.1777
 -10.700  -0.9191   0.00903   0.00506  -0.0565  0.8559  0.0024  -11.0834   0.0000   0.1771
 -10.600  -0.9086   0.00894   0.00497  -0.0565  0.8545  0.0024  -10.8895   0.0000   0.1765
 -10.500  -0.8979   0.00886   0.00489  -0.0565  0.8536  0.0024  -10.6963   0.0000   0.1758
 -10.400  -0.8873   0.00878   0.00480  -0.0565  0.8526  0.0024  -10.5047   0.0000   0.1751
 -10.300  -0.8766   0.00869   0.00472  -0.0566  0.8514  0.0024  -10.3146   0.0000   0.1744
 -10.200  -0.8659   0.00861   0.00464  -0.0566  0.8501  0.0024  -10.1261   0.0000   0.1737
 -10.100  -0.8553   0.00853   0.00455  -0.0566  0.8487  0.0024  -9.9393   0.0000   0.1730
 -10.000  -0.8446   0.00846   0.00447  -0.0567  0.8471  0.0024  -9.7540   0.0000   0.1722
  -9.900  -0.8339   0.00838   0.00439  -0.0567  0.8458  0.0024  -9.5699   0.0000   0.1714
  -9.800  -0.8231   0.00830   0.00431  -0.0567  0.8450  0.0024  -9.3868   0.0000   0.1706
  -9.700  -0.8124   0.00822   0.00423  -0.0568  0.8439  0.0024  -9.2053   0.0000   0.1697
  -9.600  -0.8016   0.00814   0.00416  -0.0568  0.8428  0.0024  -9.0254   0.0000   0.1688
  -9.400  -0.7803   0.00797   0.00396  -0.0569  0.8402  0.0025  -8.6823   0.0000   0.1670
  -9.300  -0.7696   0.00788   0.00386  -0.0569  0.8387  0.0025  -8.5146   0.0000   0.1661
  -9.200  -0.7590   0.00779   0.00377  -0.0569  0.8373  0.0026  -8.3478   0.0000   0.1651
  -9.100  -0.7482   0.00770   0.00367  -0.0569  0.8365  0.0026  -8.1813   0.0000   0.1641
  -9.000  -0.7374   0.00762   0.00359  -0.0570  0.8356  0.0026  -8.0162   0.0000   0.1630
  -8.900  -0.7265   0.00753   0.00350  -0.0570  0.8345  0.0027  -7.8524   0.0000   0.1619
  -8.800  -0.7157   0.00745   0.00341  -0.0570  0.8333  0.0028  -7.6901   0.0000   0.1607
  -8.700  -0.7049   0.00737   0.00333  -0.0571  0.8319  0.0029  -7.5292   0.0000   0.1595
  -8.600  -0.6941   0.00730   0.00325  -0.0571  0.8304  0.0030  -7.3690   0.0000   0.1583
  -8.500  -0.6833   0.00723   0.00318  -0.0571  0.8288  0.0031  -7.2090   0.0000   0.1570
  -8.400  -0.6724   0.00715   0.00311  -0.0572  0.8278  0.0032  -7.0485   0.0000   0.1557
  -8.300  -0.6615   0.00708   0.00304  -0.0573  0.8268  0.0033  -6.8884   0.0000   0.1543
  -8.200  -0.6505   0.00701   0.00297  -0.0573  0.8256  0.0034  -6.7295   0.0000   0.1528
  -8.100  -0.6395   0.00695   0.00291  -0.0574  0.8243  0.0035  -6.5718   0.0000   0.1512
  -8.000  -0.6286   0.00689   0.00285  -0.0574  0.8228  0.0036  -6.4155   0.0000   0.1497
  -7.900  -0.6176   0.00683   0.00279  -0.0575  0.8211  0.0037  -6.2605   0.0000   0.1480
  -7.800  -0.6066   0.00678   0.00273  -0.0576  0.8193  0.0037  -6.1068   0.0000   0.1463
  -7.700  -0.5955   0.00672   0.00268  -0.0576  0.8184  0.0038  -5.9537   0.0000   0.1444
  -7.600  -0.5843   0.00667   0.00263  -0.0577  0.8173  0.0038  -5.8022   0.0000   0.1425
  -7.500  -0.5732   0.00662   0.00258  -0.0578  0.8159  0.0038  -5.6522   0.0000   0.1405
  -7.400  -0.5622   0.00657   0.00252  -0.0579  0.8143  0.0038  -5.5039   0.0000   0.1384
  -7.300  -0.5511   0.00652   0.00248  -0.0579  0.8126  0.0039  -5.3574   0.0000   0.1363
  -7.200  -0.5400   0.00647   0.00243  -0.0580  0.8106  0.0039  -5.2125   0.0000   0.1341
  -7.100  -0.5289   0.00642   0.00238  -0.0581  0.8094  0.0039  -5.0685   0.0000   0.1317
  -7.000  -0.5177   0.00637   0.00233  -0.0582  0.8081  0.0039  -4.9261   0.0000   0.1292
  -6.900  -0.5065   0.00632   0.00229  -0.0583  0.8066  0.0039  -4.7856   0.0000   0.1266
  -6.800  -0.4954   0.00628   0.00224  -0.0583  0.8048  0.0039  -4.6469   0.0000   0.1239
  -6.700  -0.4843   0.00624   0.00219  -0.0584  0.8027  0.0039  -4.5101   0.0000   0.1211
  -6.600  -0.4732   0.00619   0.00214  -0.0585  0.8006  0.0040  -4.3771   0.0000   0.1182
  -6.500  -0.4621   0.00613   0.00208  -0.0586  0.7993  0.0041  -4.2457   0.0000   0.1150
  -6.400  -0.4509   0.00608   0.00203  -0.0586  0.7976  0.0042  -4.1159   0.0000   0.1117
  -6.300  -0.4398   0.00603   0.00198  -0.0587  0.7954  0.0043  -3.9878   0.0000   0.1083
  -6.200  -0.4288   0.00599   0.00193  -0.0587  0.7929  0.0045  -3.8615   0.0000   0.1048
  -6.100  -0.4176   0.00594   0.00189  -0.0588  0.7908  0.0048  -3.7361   0.0000   0.1010
  -6.000  -0.4065   0.00589   0.00184  -0.0589  0.7892  0.0050  -3.6114   0.0000   0.0969
  -5.900  -0.3953   0.00584   0.00179  -0.0590  0.7871  0.0052  -3.4883   0.0000   0.0927
  -5.800  -0.3842   0.00580   0.00175  -0.0590  0.7847  0.0054  -3.3746   0.0000   0.0882
  -5.700  -0.3731   0.00577   0.00171  -0.0591  0.7821  0.0055  -3.2661   0.0000   0.0834
  -5.600  -0.3619   0.00572   0.00167  -0.0592  0.7805  0.0057  -3.1580   0.0000   0.0782
  -5.500  -0.3507   0.00568   0.00163  -0.0593  0.7787  0.0064  -3.0530   0.0000   0.0728
  -5.400  -0.3395   0.00563   0.00158  -0.0593  0.7764  0.0071  -2.9487   0.0000   0.0670
  -5.300  -0.3285   0.00559   0.00154  -0.0594  0.7736  0.0076  -2.8454   0.0000   0.0609
  -5.200  -0.3172   0.00556   0.00151  -0.0595  0.7713  0.0079  -2.7429   0.0000   0.0542
  -5.100  -0.3060   0.00551   0.00147  -0.0596  0.7694  0.0089  -2.6423   0.0000   0.0471
  -5.000  -0.2949   0.00547   0.00143  -0.0596  0.7670  0.0097  -2.5429   0.0000   0.0394
  -4.900  -0.2838   0.00544   0.00140  -0.0597  0.7642  0.0105  -2.4448   0.0000   0.0312
  -4.800  -0.2727   0.00539   0.00135  -0.0597  0.7616  0.0120  -2.3484   0.0000   0.0223
  -4.700  -0.2614   0.00535   0.00132  -0.0598  0.7597  0.0127  -2.2523   0.0000   0.0124
  -4.600  -0.2502   0.00532   0.00129  -0.0599  0.7570  0.0141  -2.1582   0.0000   0.0018
  -4.500  -0.2391   0.00528   0.00125  -0.0600  0.7539  0.0153  -2.0659   0.0000  -0.0096
  -4.400  -0.2279   0.00525   0.00122  -0.0600  0.7513  0.0170  -1.9745   0.0000  -0.0224
  -4.300  -0.2167   0.00520   0.00119  -0.0601  0.7490  0.0187  -1.8842   0.0000  -0.0365
  -4.200  -0.2056   0.00517   0.00116  -0.0602  0.7462  0.0207  -1.7956   0.0000  -0.0520
  -4.100  -0.1945   0.00514   0.00113  -0.0602  0.7429  0.0225  -1.7084   0.0000  -0.0692
  -4.000  -0.1833   0.00509   0.00109  -0.0603  0.7406  0.0258  -1.6226   0.0000  -0.0886
  -3.900  -0.1722   0.00505   0.00106  -0.0604  0.7380  0.0295  -1.5382   0.0000  -0.1105
  -3.800  -0.1612   0.00501   0.00103  -0.0604  0.7347  0.0338  -1.4554   0.0000  -0.1350
  -3.700  -0.1501   0.00498   0.00100  -0.0604  0.7312  0.0368  -1.3798   0.0000  -0.1635
  -3.600  -0.1389   0.00494   0.00097  -0.0605  0.7282  0.0405  -1.3081   0.0000  -0.1969
  -3.500  -0.1279   0.00491   0.00095  -0.0605  0.7237  0.0446  -1.2381   0.0000  -0.2351
  -3.400  -0.1169   0.00488   0.00092  -0.0606  0.7198  0.0491  -1.1689   0.0000  -0.2808
  -3.300  -0.1058   0.00484   0.00090  -0.0606  0.7158  0.0545  -1.1009   0.0000  -0.3359
  -3.200  -0.0949   0.00481   0.00087  -0.0606  0.7110  0.0604  -1.0343   0.0000  -0.4028
  -3.100  -0.0838   0.00477   0.00085  -0.0607  0.7077  0.0658  -0.9680   0.0000  -0.4896
  -3.000  -0.0729   0.00475   0.00083  -0.0607  0.7025  0.0715  -0.9033   0.0000  -0.5998
  -2.900  -0.0619   0.00472   0.00081  -0.0608  0.6979  0.0774  -0.8395   0.0000  -0.7509
  -2.800  -0.0510   0.00470   0.00079  -0.0608  0.6917  0.0833  -0.7771   0.0000  -0.9634
  -2.700  -0.0400   0.00467   0.00077  -0.0608  0.6864  0.0895  -0.7155   0.0000  -1.2956
  -2.600  -0.0293   0.00464   0.00075  -0.0608  0.6800  0.0988  -0.6673   0.0000  -1.8582
  -2.500  -0.0186   0.00459   0.00073  -0.0608  0.6744  0.1124  -0.6267   0.0000  -3.0705
  -2.400  -0.0080   0.00456   0.00071  -0.0607  0.6672  0.1251  -0.5891   0.0000  -7.4362
  -2.200   0.0135   0.00451   0.00068  -0.0607  0.6526  0.1427  -0.5222   0.0000   4.8013
  -2.100   0.0241   0.00449   0.00067  -0.0607  0.6448  0.1539  -0.4968   0.0000   2.7976
  -2.000   0.0348   0.00447   0.00066  -0.0606  0.6372  0.1652  -0.4735   0.0000   2.0144
  -1.900   0.0455   0.00444   0.00064  -0.0606  0.6301  0.1779  -0.4505   0.0000   1.5979
  -1.800   0.0561   0.00442   0.00063  -0.0606  0.6223  0.1903  -0.4276   0.0000   1.3417
  -1.700   0.0667   0.00440   0.00062  -0.0605  0.6149  0.2039  -0.4057   0.0000   1.1667
  -1.600   0.0774   0.00436   0.00061  -0.0605  0.6085  0.2182  -0.3890   0.0000   1.0390
  -1.400   0.0989   0.00435   0.00060  -0.0605  0.5932  0.2368  -0.3984   0.0000   0.8663
  -1.300   0.1097   0.00433   0.00059  -0.0605  0.5860  0.2471  -0.4033   0.0000   0.8051
  -1.200   0.1203   0.00433   0.00059  -0.0604  0.5776  0.2568  -0.4083   0.0000   0.7553
  -1.100   0.1310   0.00433   0.00059  -0.0604  0.5685  0.2661  -0.4137   0.0000   0.7136
  -1.000   0.1414   0.00431   0.00058  -0.0603  0.5594  0.2823  -0.4191   0.0000   0.6785
  -0.800   0.1616   0.00425   0.00057  -0.0601  0.5374  0.3267  -0.4300   0.0000   0.6229
  -0.700   0.1718   0.00424   0.00058  -0.0600  0.5251  0.3443  -0.4356   0.0000   0.5998
  -0.600   0.1822   0.00427   0.00058  -0.0599  0.5122  0.3545  -0.4414   0.0000   0.5792
  -0.500   0.1926   0.00428   0.00059  -0.0598  0.5008  0.3653  -0.4477   0.0000   0.5607
  -0.400   0.2031   0.00428   0.00059  -0.0598  0.4896  0.3778  -0.4542   0.0000   0.5442
  -0.300   0.2133   0.00428   0.00059  -0.0597  0.4781  0.3940  -0.4606   0.0000   0.5294
  -0.200   0.2236   0.00428   0.00060  -0.0596  0.4666  0.4101  -0.4670   0.0000   0.5159
   0.000   0.2440   0.00428   0.00061  -0.0594  0.4423  0.4452  -0.4810   0.0000   0.4924
   0.100   0.2543   0.00429   0.00062  -0.0593  0.4297  0.4594  -0.4882   0.0000   0.4820
   0.200   0.2647   0.00430   0.00063  -0.0592  0.4187  0.4731  -0.4955   0.0000   0.4724
   0.300   0.2753   0.00429   0.00064  -0.0592  0.4105  0.4875  -0.5032   0.0000   0.4635
   0.400   0.2859   0.00429   0.00064  -0.0591  0.4027  0.5023  -0.5110   0.0000   0.4553
   0.500   0.2965   0.00429   0.00065  -0.0591  0.3951  0.5164  -0.5194   0.0000   0.4477
   0.700   0.3181   0.00429   0.00066  -0.0591  0.3812  0.5388  -0.5378   0.0000   0.4339
   0.800   0.3287   0.00432   0.00068  -0.0591  0.3706  0.5459  -0.5474   0.0000   0.4277
   0.900   0.3394   0.00437   0.00070  -0.0590  0.3591  0.5513  -0.5572   0.0000   0.4218
   1.000   0.3501   0.00441   0.00072  -0.0590  0.3480  0.5557  -0.5671   0.0000   0.4163
   1.100   0.3608   0.00445   0.00074  -0.0590  0.3382  0.5611  -0.5777   0.0000   0.4112
   1.200   0.3715   0.00448   0.00076  -0.0590  0.3289  0.5677  -0.5883   0.0000   0.4063
   1.300   0.3822   0.00451   0.00077  -0.0589  0.3200  0.5764  -0.5989   0.0000   0.4017
   1.400   0.3928   0.00453   0.00079  -0.0589  0.3106  0.5868  -0.6095   0.0000   0.3974
   1.500   0.4034   0.00455   0.00081  -0.0589  0.3011  0.5977  -0.6214   0.0000   0.3933
   1.600   0.4140   0.00458   0.00083  -0.0588  0.2919  0.6084  -0.6353   0.0000   0.3894
   1.700   0.4246   0.00460   0.00085  -0.0588  0.2839  0.6188  -0.6500   0.0000   0.3856
   1.800   0.4354   0.00463   0.00087  -0.0588  0.2763  0.6276  -0.6649   0.0000   0.3821
   1.900   0.4461   0.00466   0.00090  -0.0588  0.2673  0.6353  -0.6797   0.0000   0.3787
   2.000   0.4564   0.00471   0.00093  -0.0587  0.2553  0.6438  -0.6944   0.0000   0.3755
   2.100   0.4669   0.00477   0.00095  -0.0586  0.2433  0.6507  -0.7110   0.0000   0.3724
   2.200   0.4776   0.00481   0.00098  -0.0586  0.2337  0.6564  -0.7280   0.0000   0.3695
   2.300   0.4885   0.00485   0.00101  -0.0586  0.2280  0.6613  -0.7469   0.0000   0.3667
   2.400   0.4995   0.00488   0.00103  -0.0586  0.2221  0.6658  -0.7659   0.0000   0.3640
   2.500   0.5104   0.00492   0.00106  -0.0587  0.2160  0.6688  -0.7849   0.0000   0.3615
   2.600   0.5214   0.00495   0.00108  -0.0587  0.2110  0.6733  -0.8042   0.0000   0.3590
   2.700   0.5322   0.00500   0.00110  -0.0587  0.2034  0.6774  -0.8263   0.0000   0.3567
   2.800   0.5429   0.00506   0.00114  -0.0587  0.1937  0.6801  -0.8493   0.0000   0.3544
   2.900   0.5533   0.00513   0.00118  -0.0586  0.1825  0.6846  -0.8722   0.0000   0.3521
   3.000   0.5635   0.00522   0.00123  -0.0585  0.1688  0.6886  -0.8949   0.0000   0.3499
   3.100   0.5741   0.00529   0.00126  -0.0585  0.1582  0.6914  -0.9182   0.0000   0.3479
   3.200   0.5847   0.00534   0.00130  -0.0584  0.1504  0.6960  -0.9434   0.0000   0.3459
   3.300   0.5953   0.00541   0.00134  -0.0584  0.1415  0.6998  -0.9695   0.0000   0.3440
   3.400   0.6058   0.00548   0.00138  -0.0583  0.1318  0.7023  -0.9964   0.0000   0.3421
   3.500   0.6163   0.00556   0.00143  -0.0583  0.1222  0.7059  -1.0290   0.0000   0.3403
   3.600   0.6269   0.00562   0.00147  -0.0583  0.1150  0.7091  -1.0654   0.0000   0.3385
   3.700   0.6378   0.00567   0.00150  -0.0583  0.1101  0.7114  -1.1025   0.0000   0.3369
   3.800   0.6486   0.00573   0.00154  -0.0583  0.1043  0.7129  -1.1501   0.0000   0.3353
   3.900   0.6593   0.00580   0.00158  -0.0583  0.0978  0.7143  -1.2015   0.0000   0.3337
   4.000   0.6699   0.00586   0.00162  -0.0582  0.0915  0.7168  -1.2535   0.0000   0.3322
   4.100   0.6806   0.00593   0.00167  -0.0582  0.0859  0.7188  -1.3061   0.0000   0.3307
   4.200   0.6913   0.00599   0.00171  -0.0582  0.0805  0.7207  -1.3625   0.0000   0.3293
   4.300   0.7021   0.00605   0.00175  -0.0582  0.0760  0.7222  -1.4220   0.0000   0.3279
   4.400   0.7128   0.00611   0.00179  -0.0582  0.0714  0.7235  -1.4819   0.0000   0.3266
   4.500   0.7235   0.00618   0.00184  -0.0582  0.0667  0.7244  -1.5425   0.0000   0.3253
   4.600   0.7343   0.00623   0.00188  -0.0582  0.0633  0.7264  -1.6040   0.0000   0.3240
   4.700   0.7450   0.00629   0.00193  -0.0582  0.0592  0.7285  -1.6660   0.0000   0.3227
   4.800   0.7556   0.00636   0.00198  -0.0581  0.0547  0.7304  -1.7285   0.0000   0.3215
   4.900   0.7662   0.00644   0.00203  -0.0581  0.0499  0.7321  -1.7962   0.0000   0.3203
   5.000   0.7766   0.00652   0.00209  -0.0580  0.0444  0.7335  -1.8657   0.0000   0.3191
   5.100   0.7871   0.00660   0.00215  -0.0580  0.0395  0.7345  -1.9415   0.0000   0.3180
   5.200   0.7977   0.00667   0.00220  -0.0579  0.0362  0.7353  -2.0208   0.0000   0.3169
   5.300   0.8084   0.00674   0.00225  -0.0579  0.0338  0.7367  -2.1014   0.0000   0.3158
   5.400   0.8190   0.00680   0.00230  -0.0579  0.0309  0.7385  -2.1828   0.0000   0.3147
   5.500   0.8295   0.00687   0.00236  -0.0579  0.0279  0.7401  -2.2647   0.0000   0.3137
   5.600   0.8401   0.00695   0.00242  -0.0578  0.0255  0.7415  -2.3478   0.0000   0.3127
   5.700   0.8508   0.00701   0.00247  -0.0578  0.0236  0.7428  -2.4326   0.0000   0.3117
   5.800   0.8613   0.00708   0.00253  -0.0578  0.0212  0.7439  -2.5175   0.0000   0.3107
   5.900   0.8720   0.00714   0.00258  -0.0578  0.0200  0.7449  -2.6046   0.0000   0.3098
   6.000   0.8825   0.00722   0.00264  -0.0577  0.0182  0.7457  -2.6916   0.0000   0.3088
   6.200   0.9037   0.00735   0.00276  -0.0577  0.0157  0.7482  -2.8698   0.0000   0.3070
   6.300   0.9143   0.00741   0.00282  -0.0577  0.0144  0.7498  -2.9603   0.0000   0.3062
   6.400   0.9249   0.00748   0.00288  -0.0576  0.0136  0.7512  -3.0517   0.0000   0.3053
   6.500   0.9354   0.00755   0.00294  -0.0576  0.0124  0.7524  -3.1438   0.0000   0.3045
   6.600   0.9460   0.00761   0.00299  -0.0576  0.0119  0.7535  -3.2378   0.0000   0.3036
   6.700   0.9566   0.00767   0.00305  -0.0575  0.0113  0.7545  -3.3326   0.0000   0.3028
   6.800   0.9670   0.00775   0.00312  -0.0575  0.0105  0.7553  -3.4276   0.0000   0.3020
   6.900   0.9775   0.00782   0.00318  -0.0575  0.0096  0.7560  -3.5253   0.0000   0.3012
   7.000   0.9881   0.00788   0.00324  -0.0574  0.0094  0.7565  -3.6325   0.0000   0.3005
   7.100   0.9987   0.00794   0.00329  -0.0574  0.0092  0.7570  -3.7406   0.0000   0.2997
   7.200   1.0092   0.00801   0.00336  -0.0574  0.0088  0.7582  -3.8494   0.0000   0.2990
   7.300   1.0196   0.00808   0.00342  -0.0573  0.0084  0.7595  -3.9589   0.0000   0.2982
   7.400   1.0300   0.00815   0.00349  -0.0573  0.0079  0.7607  -4.0694   0.0000   0.2975
   7.500   1.0404   0.00822   0.00356  -0.0572  0.0075  0.7618  -4.1812   0.0000   0.2968
   7.600   1.0509   0.00828   0.00362  -0.0572  0.0074  0.7628  -4.2951   0.0000   0.2961
   7.700   1.0614   0.00834   0.00368  -0.0572  0.0074  0.7638  -4.4103   0.0000   0.2954
   7.800   1.0718   0.00841   0.00374  -0.0571  0.0072  0.7647  -4.5263   0.0000   0.2947
   7.900   1.0822   0.00848   0.00381  -0.0571  0.0071  0.7655  -4.6433   0.0000   0.2940
   8.000   1.0925   0.00855   0.00388  -0.0570  0.0069  0.7662  -4.7611   0.0000   0.2933
   8.100   1.1027   0.00863   0.00395  -0.0569  0.0066  0.7668  -4.8795   0.0000   0.2927
   8.200   1.1129   0.00871   0.00403  -0.0568  0.0063  0.7673  -4.9986   0.0000   0.2920
   8.300   1.1231   0.00879   0.00410  -0.0568  0.0059  0.7676  -5.1185   0.0000   0.2913
   8.400   1.1333   0.00887   0.00418  -0.0567  0.0056  0.7689  -5.2392   0.0000   0.2907
   8.500   1.1436   0.00894   0.00425  -0.0566  0.0055  0.7701  -5.3624   0.0000   0.2900
   8.600   1.1538   0.00901   0.00432  -0.0565  0.0055  0.7713  -5.4871   0.0000   0.2894
   8.700   1.1640   0.00908   0.00439  -0.0565  0.0054  0.7723  -5.6127   0.0000   0.2888
   8.800   1.1742   0.00916   0.00446  -0.0564  0.0053  0.7732  -5.7391   0.0000   0.2882
   8.900   1.1842   0.00924   0.00454  -0.0563  0.0052  0.7741  -5.8705   0.0000   0.2875
   9.000   1.1942   0.00932   0.00463  -0.0562  0.0050  0.7748  -6.0083   0.0000   0.2869
   9.100   1.2041   0.00942   0.00471  -0.0560  0.0048  0.7755  -6.1468   0.0000   0.2863
   9.200   1.2140   0.00951   0.00480  -0.0559  0.0045  0.7762  -6.2861   0.0000   0.2857
   9.300   1.2238   0.00960   0.00489  -0.0558  0.0043  0.7767  -6.4263   0.0000   0.2850
   9.400   1.2337   0.00970   0.00498  -0.0556  0.0040  0.7773  -6.5675   0.0000   0.2844
   9.500   1.2436   0.00979   0.00507  -0.0555  0.0039  0.7777  -6.7102   0.0000   0.2838
   9.600   1.2535   0.00987   0.00515  -0.0554  0.0039  0.7780  -6.8561   0.0000   0.2832
   9.700   1.2634   0.00995   0.00523  -0.0553  0.0039  0.7786  -7.0030   0.0000   0.2827
   9.800   1.2732   0.01003   0.00532  -0.0551  0.0038  0.7798  -7.1508   0.0000   0.2821
   9.900   1.2830   0.01012   0.00540  -0.0550  0.0038  0.7809  -7.2996   0.0000   0.2815
  10.000   1.2928   0.01021   0.00549  -0.0548  0.0037  0.7819  -7.4492   0.0000   0.2809
  10.100   1.3024   0.01030   0.00558  -0.0547  0.0037  0.7828  -7.5997   0.0000   0.2803
  10.200   1.3120   0.01039   0.00568  -0.0545  0.0036  0.7836  -7.7509   0.0000   0.2797
  10.300   1.3216   0.01049   0.00577  -0.0543  0.0035  0.7844  -7.9027   0.0000   0.2792
  10.400   1.3310   0.01059   0.00588  -0.0541  0.0034  0.7852  -8.0552   0.0000   0.2786
  10.500   1.3404   0.01070   0.00598  -0.0539  0.0033  0.7859  -8.2081   0.0000   0.2780
  10.600   1.3497   0.01081   0.00609  -0.0537  0.0032  0.7865  -8.3617   0.0000   0.2774
  10.700   1.3590   0.01092   0.00620  -0.0535  0.0031  0.7871  -8.5159   0.0000   0.2768
  10.800   1.3682   0.01103   0.00630  -0.0533  0.0030  0.7876  -8.6709   0.0000   0.2762
  10.900   1.3774   0.01114   0.00642  -0.0530  0.0029  0.7881  -8.8265   0.0000   0.2756
  11.000   1.3866   0.01125   0.00653  -0.0528  0.0028  0.7884  -8.9827   0.0000   0.2751
  11.100   1.3957   0.01136   0.00664  -0.0525  0.0028  0.7887  -9.1395   0.0000   0.2745
  11.200   1.4047   0.01148   0.00676  -0.0523  0.0027  0.7898  -9.2968   0.0000   0.2739
  11.300   1.4136   0.01159   0.00688  -0.0520  0.0026  0.7909  -9.4547   0.0000   0.2733
  11.400   1.4224   0.01171   0.00700  -0.0517  0.0026  0.7920  -9.6123   0.0000   0.2727
  11.500   1.4308   0.01181   0.00711  -0.0513  0.0025  0.7929  -9.7687   0.0000   0.2720
  11.600   1.4389   0.01191   0.00721  -0.0508  0.0025  0.7938  -9.9258   0.0000   0.2714
  11.700   1.4472   0.01201   0.00731  -0.0504  0.0025  0.7946  -10.0851   0.0000   0.2707
  11.800   1.4555   0.01212   0.00742  -0.0500  0.0025  0.7954  -10.2461   0.0000   0.2701
  11.900   1.4638   0.01223   0.00754  -0.0496  0.0025  0.7961  -10.4082   0.0000   0.2695
  12.000   1.4721   0.01234   0.00765  -0.0492  0.0025  0.7968  -10.5750   0.0000   0.2688
  12.100   1.4803   0.01245   0.00777  -0.0488  0.0025  0.7974  -10.7494   0.0000   0.2682
  12.200   1.4885   0.01257   0.00789  -0.0484  0.0025  0.7980  -10.9246   0.0000   0.2676
  12.300   1.4966   0.01269   0.00801  -0.0480  0.0025  0.7985  -11.1005   0.0000   0.2670
  12.400   1.5047   0.01281   0.00813  -0.0476  0.0025  0.7989  -11.2769   0.0000   0.2664
  12.600   1.5206   0.01305   0.00838  -0.0467  0.0025  0.8007  -11.6314   0.0000   0.2651
  12.700   1.5284   0.01318   0.00851  -0.0463  0.0025  0.8020  -11.8094   0.0000   0.2645
  12.800   1.5361   0.01331   0.00865  -0.0458  0.0025  0.8031  -11.9879   0.0000   0.2639
  12.900   1.5438   0.01344   0.00878  -0.0453  0.0025  0.8042  -12.1670   0.0000   0.2633
  13.000   1.5514   0.01357   0.00892  -0.0449  0.0025  0.8052  -12.3466   0.0000   0.2626
  13.100   1.5590   0.01371   0.00906  -0.0444  0.0025  0.8061  -12.5268   0.0000   0.2620
  13.200   1.5665   0.01385   0.00921  -0.0439  0.0024  0.8069  -12.7073   0.0000   0.2614
  13.300   1.5739   0.01399   0.00935  -0.0434  0.0024  0.8077  -12.8884   0.0000   0.2608
  13.400   1.5813   0.01414   0.00951  -0.0429  0.0024  0.8083  -13.0699   0.0000   0.2602
  13.500   1.5885   0.01429   0.00966  -0.0424  0.0024  0.8089  -13.2517   0.0000   0.2595
  13.600   1.5957   0.01444   0.00982  -0.0419  0.0024  0.8094  -13.4337   0.0000   0.2589
  13.800   1.6098   0.01476   0.01015  -0.0409  0.0023  0.8120  -13.7984   0.0000   0.2577
  13.900   1.6168   0.01493   0.01033  -0.0403  0.0023  0.8132  -13.9810   0.0000   0.2571
  14.000   1.6236   0.01510   0.01051  -0.0398  0.0023  0.8143  -14.1635   0.0000   0.2564
  14.100   1.6303   0.01528   0.01069  -0.0392  0.0022  0.8154  -14.3464   0.0000   0.2558
  14.200   1.6370   0.01547   0.01088  -0.0387  0.0022  0.8164  -14.5287   0.0000   0.2552
  14.300   1.6435   0.01566   0.01108  -0.0381  0.0022  0.8174  -14.7109   0.0000   0.2546
  14.400   1.6499   0.01585   0.01128  -0.0375  0.0021  0.8183  -14.8928   0.0000   0.2539
  14.500   1.6562   0.01606   0.01149  -0.0369  0.0021  0.8191  -15.0747   0.0000   0.2533
  14.700   1.6685   0.01649   0.01193  -0.0357  0.0020  0.8219  -15.4370   0.0000   0.2520
  14.800   1.6745   0.01670   0.01216  -0.0351  0.0019  0.8235  -15.6181   0.0000   0.2514
  14.900   1.6804   0.01693   0.01240  -0.0345  0.0019  0.8250  -15.7990   0.0000   0.2508
  15.000   1.6864   0.01716   0.01263  -0.0339  0.0018  0.8264  -15.9808   0.0000   0.2501
  15.100   1.6922   0.01739   0.01288  -0.0333  0.0018  0.8277  -16.1617   0.0000   0.2495
  15.200   1.6979   0.01763   0.01313  -0.0326  0.0017  0.8289  -16.3423   0.0000   0.2489
  15.400   1.7090   0.01814   0.01365  -0.0313  0.0016  0.8325  -16.7019   0.0000   0.2476
  15.500   1.7144   0.01839   0.01393  -0.0307  0.0016  0.8346  -16.8818   0.0000   0.2470
  15.600   1.7197   0.01866   0.01421  -0.0301  0.0016  0.8365  -17.0606   0.0000   0.2464
  15.700   1.7250   0.01894   0.01450  -0.0294  0.0015  0.8383  -17.2396   0.0000   0.2457
  15.900   1.7350   0.01951   0.01510  -0.0281  0.0015  0.8435  -17.5933   0.0000   0.2445
  16.000   1.7403   0.01977   0.01538  -0.0275  0.0015  0.8465  -17.7779   0.0000   0.2439
  16.300   1.7560   0.02060   0.01626  -0.0257  0.0015  0.8585  -18.3337   0.0000   0.2421
  16.400   1.7611   0.02088   0.01656  -0.0251  0.0015  0.8658  -18.5183   0.0000   0.2415
  16.500   1.7658   0.02116   0.01687  -0.0244  0.0015  0.8767  -18.6997   0.0000   0.2409
  16.600   1.7698   0.02141   0.01719  -0.0236  0.0015  0.9057  -18.8735   0.0000   0.2402
  16.700   1.7744   0.02154   0.01753  -0.0230  0.0015  1.0000  -19.0549   0.0000   0.2395
  16.800   1.7791   0.02187   0.01786  -0.0224  0.0015  1.0000  -19.2382   0.0000   0.2390
  16.900   1.7839   0.02220   0.01820  -0.0218  0.0015  1.0000  -19.4234   0.0000   0.2384
  17.000   1.7884   0.02254   0.01855  -0.0212  0.0015  1.0000  -19.6066   0.0000   0.2378
  17.100   1.7929   0.02289   0.01891  -0.0206  0.0015  1.0000  -19.7901   0.0000   0.2372
  17.200   1.7974   0.02325   0.01928  -0.0200  0.0015  1.0000  -19.9739   0.0000   0.2367
  17.300   1.8016   0.02362   0.01966  -0.0194  0.0015  1.0000  -20.1543   0.0000   0.2361
  17.400   1.8058   0.02398   0.02004  -0.0188  0.0015  1.0000  -20.3361   0.0000   0.2355
  17.500   1.8098   0.02437   0.02044  -0.0182  0.0015  1.0000  -20.5148   0.0000   0.2350
  17.600   1.8138   0.02477   0.02084  -0.0177  0.0015  1.0000  -20.6952   0.0000   0.2344
  17.700   1.8176   0.02517   0.02126  -0.0171  0.0015  1.0000  -20.8745   0.0000   0.2338
  17.800   1.8214   0.02559   0.02170  -0.0165  0.0015  1.0000  -21.0525   0.0000   0.2333
  17.900   1.8252   0.02602   0.02213  -0.0159  0.0015  1.0000  -21.2321   0.0000   0.2327
  18.000   1.8286   0.02646   0.02259  -0.0154  0.0014  1.0000  -21.4078   0.0000   0.2322
  18.100   1.8323   0.02691   0.02304  -0.0148  0.0014  1.0000  -21.5862   0.0000   0.2316
  18.200   1.8355   0.02738   0.02353  -0.0142  0.0014  1.0000  -21.7600   0.0000   0.2311
  18.300   1.8387   0.02785   0.02401  -0.0137  0.0014  1.0000  -21.9343   0.0000   0.2305
  18.400   1.8417   0.02834   0.02451  -0.0131  0.0014  1.0000  -22.1049   0.0000   0.2300
  18.500   1.8446   0.02884   0.02503  -0.0126  0.0014  1.0000  -22.2757   0.0000   0.2294
  18.600   1.8474   0.02936   0.02556  -0.0120  0.0014  1.0000  -22.4466   0.0000   0.2289
  18.700   1.8501   0.02989   0.02611  -0.0115  0.0014  1.0000  -22.6152   0.0000   0.2283
  18.800   1.8529   0.03043   0.02667  -0.0110  0.0014  1.0000  -22.7857   0.0000   0.2278
  18.900   1.8553   0.03101   0.02726  -0.0105  0.0014  1.0000  -22.9519   0.0000   0.2273
  19.000   1.8580   0.03158   0.02784  -0.0100  0.0014  1.0000  -23.1211   0.0000   0.2268
  19.100   1.8601   0.03219   0.02847  -0.0095  0.0014  1.0000  -23.2844   0.0000   0.2263
  19.200   1.8626   0.03280   0.02909  -0.0090  0.0014  1.0000  -23.4518   0.0000   0.2258
  19.300   1.8645   0.03345   0.02975  -0.0086  0.0014  1.0000  -23.6123   0.0000   0.2253
  19.400   1.8666   0.03408   0.03041  -0.0081  0.0014  1.0000  -23.7755   0.0000   0.2248
  19.500   1.8681   0.03477   0.03111  -0.0077  0.0014  1.0000  -23.9307   0.0000   0.2243
  19.600   1.8699   0.03545   0.03180  -0.0073  0.0014  1.0000  -24.0906   0.0000   0.2238
  19.700   1.8712   0.03618   0.03256  -0.0069  0.0014  1.0000  -24.2431   0.0000   0.2233
  19.800   1.8729   0.03690   0.03329  -0.0065  0.0014  1.0000  -24.4006   0.0000   0.2229
  19.900   1.8739   0.03769   0.03410  -0.0061  0.0014  1.0000  -24.5499   0.0000   0.2224
  20.000   1.8753   0.03846   0.03488  -0.0058  0.0014  1.0000  -24.7037   0.0000   0.2220


