xflr5 v6.32

 Calculated polar for: finalfoil mod1

 1 1 Reynolds number fixed          Mach number fixed         

 xtrf =   1.000 (top)        1.000 (bottom)
 Mach =   0.000     Re =    10.000 e 6     Ncrit =   9.000

  alpha     CL        CD       CDp       Cm    Top Xtr Bot Xtr   Cpmin    Chinge    XCp    
 ------- -------- --------- --------- -------- ------- ------- -------- --------- ---------
 -15.000  -1.3208   0.01562   0.01185  -0.0615  0.9279  0.0020  -19.9428   0.0000   0.1857
 -14.900  -1.3130   0.01543   0.01164  -0.0613  0.9259  0.0020  -19.7309   0.0000   0.1858
 -14.800  -1.3051   0.01524   0.01144  -0.0610  0.9240  0.0021  -19.5187   0.0000   0.1859
 -14.700  -1.2969   0.01506   0.01125  -0.0607  0.9224  0.0021  -19.3041   0.0000   0.1859
 -14.600  -1.2886   0.01488   0.01106  -0.0605  0.9206  0.0021  -19.0884   0.0000   0.1860
 -14.500  -1.2802   0.01470   0.01087  -0.0603  0.9188  0.0021  -18.8727   0.0000   0.1860
 -14.400  -1.2718   0.01453   0.01069  -0.0601  0.9170  0.0021  -18.6570   0.0000   0.1860
 -14.300  -1.2631   0.01437   0.01051  -0.0599  0.9155  0.0022  -18.4393   0.0000   0.1860
 -14.200  -1.2543   0.01420   0.01034  -0.0597  0.9139  0.0022  -18.2208   0.0000   0.1860
 -14.100  -1.2455   0.01405   0.01017  -0.0595  0.9123  0.0022  -18.0024   0.0000   0.1860
 -14.000  -1.2366   0.01390   0.01001  -0.0594  0.9106  0.0022  -17.7843   0.0000   0.1859
 -13.900  -1.2276   0.01375   0.00985  -0.0592  0.9091  0.0022  -17.5658   0.0000   0.1859
 -13.800  -1.2184   0.01360   0.00970  -0.0591  0.9078  0.0023  -17.3463   0.0000   0.1858
 -13.700  -1.2092   0.01345   0.00954  -0.0589  0.9064  0.0023  -17.1272   0.0000   0.1856
 -13.600  -1.2000   0.01331   0.00940  -0.0588  0.9050  0.0023  -16.9086   0.0000   0.1855
 -13.500  -1.1907   0.01317   0.00925  -0.0587  0.9035  0.0023  -16.6906   0.0000   0.1854
 -13.400  -1.1813   0.01304   0.00910  -0.0586  0.9021  0.0023  -16.4729   0.0000   0.1853
 -13.300  -1.1718   0.01290   0.00896  -0.0585  0.9010  0.0023  -16.2543   0.0000   0.1851
 -13.200  -1.1623   0.01277   0.00883  -0.0584  0.8998  0.0023  -16.0364   0.0000   0.1849
 -13.100  -1.1527   0.01264   0.00869  -0.0583  0.8985  0.0023  -15.8193   0.0000   0.1847
 -13.000  -1.1431   0.01252   0.00856  -0.0582  0.8971  0.0024  -15.6031   0.0000   0.1845
 -12.900  -1.1334   0.01239   0.00842  -0.0582  0.8958  0.0024  -15.3878   0.0000   0.1843
 -12.800  -1.1237   0.01227   0.00830  -0.0581  0.8945  0.0024  -15.1728   0.0000   0.1841
 -12.700  -1.1139   0.01215   0.00817  -0.0580  0.8934  0.0024  -14.9578   0.0000   0.1838
 -12.600  -1.1040   0.01203   0.00804  -0.0580  0.8922  0.0024  -14.7438   0.0000   0.1835
 -12.500  -1.0942   0.01191   0.00792  -0.0579  0.8909  0.0024  -14.5308   0.0000   0.1832
 -12.400  -1.0843   0.01179   0.00780  -0.0579  0.8895  0.0024  -14.3191   0.0000   0.1829
 -12.300  -1.0744   0.01168   0.00768  -0.0578  0.8881  0.0024  -14.1085   0.0000   0.1826
 -12.200  -1.0644   0.01157   0.00756  -0.0578  0.8868  0.0024  -13.8985   0.0000   0.1823
 -12.100  -1.0543   0.01146   0.00745  -0.0578  0.8858  0.0024  -13.6889   0.0000   0.1819
 -12.000  -1.0442   0.01135   0.00733  -0.0577  0.8846  0.0024  -13.4804   0.0000   0.1816
 -11.900  -1.0341   0.01124   0.00722  -0.0577  0.8834  0.0024  -13.2733   0.0000   0.1812
 -11.800  -1.0240   0.01113   0.00711  -0.0577  0.8821  0.0024  -13.0675   0.0000   0.1808
 -11.700  -1.0139   0.01103   0.00700  -0.0576  0.8809  0.0024  -12.8630   0.0000   0.1804
 -11.600  -1.0038   0.01093   0.00689  -0.0576  0.8796  0.0024  -12.6599   0.0000   0.1800
 -11.500  -0.9935   0.01082   0.00678  -0.0576  0.8786  0.0024  -12.4570   0.0000   0.1795
 -11.400  -0.9832   0.01072   0.00668  -0.0576  0.8777  0.0024  -12.2553   0.0000   0.1790
 -11.300  -0.9729   0.01061   0.00657  -0.0576  0.8766  0.0024  -12.0550   0.0000   0.1786
 -11.200  -0.9626   0.01051   0.00647  -0.0576  0.8754  0.0024  -11.8562   0.0000   0.1780
 -11.100  -0.9523   0.01041   0.00636  -0.0576  0.8742  0.0024  -11.6590   0.0000   0.1775
 -11.000  -0.9420   0.01032   0.00626  -0.0576  0.8729  0.0024  -11.4633   0.0000   0.1770
 -10.800  -0.9219   0.01004   0.00595  -0.0575  0.8705  0.0025  -11.1013   0.0000   0.1760
 -10.700  -0.9119   0.00988   0.00578  -0.0574  0.8695  0.0025  -10.9259   0.0000   0.1755
 -10.600  -0.9017   0.00975   0.00563  -0.0574  0.8684  0.0026  -10.7489   0.0000   0.1750
 -10.500  -0.8915   0.00962   0.00549  -0.0573  0.8672  0.0026  -10.5712   0.0000   0.1744
 -10.400  -0.8813   0.00950   0.00535  -0.0573  0.8660  0.0027  -10.3934   0.0000   0.1738
 -10.300  -0.8710   0.00938   0.00523  -0.0573  0.8647  0.0027  -10.2160   0.0000   0.1732
 -10.200  -0.8607   0.00927   0.00511  -0.0573  0.8634  0.0027  -10.0390   0.0000   0.1725
 -10.100  -0.8503   0.00916   0.00499  -0.0573  0.8624  0.0028  -9.8619   0.0000   0.1718
 -10.000  -0.8397   0.00905   0.00488  -0.0573  0.8615  0.0028  -9.6852   0.0000   0.1711
  -9.900  -0.8292   0.00895   0.00477  -0.0573  0.8604  0.0029  -9.5093   0.0000   0.1703
  -9.800  -0.8187   0.00885   0.00466  -0.0573  0.8592  0.0029  -9.3344   0.0000   0.1695
  -9.700  -0.8082   0.00875   0.00456  -0.0573  0.8579  0.0029  -9.1605   0.0000   0.1687
  -9.600  -0.7976   0.00866   0.00446  -0.0573  0.8566  0.0030  -8.9875   0.0000   0.1678
  -9.500  -0.7871   0.00857   0.00436  -0.0573  0.8551  0.0030  -8.8154   0.0000   0.1670
  -9.400  -0.7764   0.00848   0.00427  -0.0573  0.8540  0.0031  -8.6435   0.0000   0.1660
  -9.300  -0.7657   0.00839   0.00418  -0.0574  0.8530  0.0031  -8.4722   0.0000   0.1650
  -9.200  -0.7550   0.00830   0.00409  -0.0574  0.8519  0.0032  -8.3021   0.0000   0.1640
  -9.100  -0.7443   0.00822   0.00400  -0.0574  0.8506  0.0032  -8.1332   0.0000   0.1630
  -9.000  -0.7335   0.00814   0.00392  -0.0574  0.8494  0.0033  -7.9656   0.0000   0.1619
  -8.900  -0.7228   0.00806   0.00383  -0.0575  0.8480  0.0033  -7.7994   0.0000   0.1608
  -8.800  -0.7121   0.00798   0.00376  -0.0575  0.8466  0.0034  -7.6344   0.0000   0.1596
  -8.700  -0.7013   0.00791   0.00368  -0.0575  0.8455  0.0035  -7.4702   0.0000   0.1584
  -8.600  -0.6904   0.00783   0.00360  -0.0576  0.8446  0.0035  -7.3069   0.0000   0.1571
  -8.500  -0.6795   0.00776   0.00353  -0.0577  0.8435  0.0036  -7.1451   0.0000   0.1558
  -8.400  -0.6686   0.00768   0.00346  -0.0577  0.8423  0.0036  -6.9845   0.0000   0.1544
  -8.300  -0.6577   0.00762   0.00339  -0.0578  0.8411  0.0037  -6.8253   0.0000   0.1530
  -8.200  -0.6468   0.00755   0.00332  -0.0578  0.8399  0.0037  -6.6675   0.0000   0.1515
  -8.100  -0.6359   0.00749   0.00325  -0.0579  0.8386  0.0038  -6.5109   0.0000   0.1499
  -8.000  -0.6250   0.00743   0.00319  -0.0579  0.8372  0.0038  -6.3556   0.0000   0.1483
  -7.900  -0.6139   0.00736   0.00313  -0.0580  0.8364  0.0038  -6.2008   0.0000   0.1466
  -7.800  -0.6029   0.00730   0.00307  -0.0581  0.8354  0.0038  -6.0475   0.0000   0.1448
  -7.700  -0.5919   0.00724   0.00301  -0.0581  0.8342  0.0039  -5.8957   0.0000   0.1430
  -7.600  -0.5808   0.00718   0.00295  -0.0582  0.8329  0.0039  -5.7455   0.0000   0.1410
  -7.500  -0.5698   0.00713   0.00289  -0.0583  0.8316  0.0039  -5.5968   0.0000   0.1390
  -7.400  -0.5588   0.00707   0.00284  -0.0583  0.8302  0.0039  -5.4499   0.0000   0.1370
  -7.300  -0.5478   0.00702   0.00278  -0.0584  0.8286  0.0039  -5.3046   0.0000   0.1348
  -7.200  -0.5368   0.00695   0.00271  -0.0585  0.8276  0.0040  -5.1649   0.0000   0.1326
  -7.100  -0.5258   0.00688   0.00263  -0.0585  0.8264  0.0041  -5.0280   0.0000   0.1302
  -7.000  -0.5148   0.00681   0.00256  -0.0586  0.8251  0.0043  -4.8913   0.0000   0.1278
  -6.900  -0.5038   0.00675   0.00250  -0.0586  0.8236  0.0044  -4.7555   0.0000   0.1252
  -6.800  -0.4928   0.00669   0.00244  -0.0587  0.8221  0.0046  -4.6208   0.0000   0.1226
  -6.700  -0.4818   0.00663   0.00238  -0.0587  0.8205  0.0047  -4.4873   0.0000   0.1198
  -6.600  -0.4708   0.00658   0.00232  -0.0588  0.8191  0.0049  -4.3547   0.0000   0.1168
  -6.500  -0.4596   0.00652   0.00226  -0.0589  0.8180  0.0050  -4.2227   0.0000   0.1137
  -6.400  -0.4485   0.00646   0.00221  -0.0589  0.8167  0.0051  -4.0922   0.0000   0.1103
  -6.300  -0.4374   0.00641   0.00216  -0.0590  0.8153  0.0053  -3.9633   0.0000   0.1068
  -6.200  -0.4263   0.00636   0.00211  -0.0591  0.8136  0.0054  -3.8361   0.0000   0.1032
  -6.100  -0.4152   0.00631   0.00206  -0.0591  0.8119  0.0055  -3.7106   0.0000   0.0993
  -6.000  -0.4041   0.00627   0.00201  -0.0592  0.8101  0.0056  -3.5864   0.0000   0.0953
  -5.900  -0.3929   0.00622   0.00196  -0.0593  0.8088  0.0057  -3.4629   0.0000   0.0909
  -5.800  -0.3818   0.00616   0.00191  -0.0594  0.8073  0.0062  -3.3552   0.0000   0.0863
  -5.700  -0.3707   0.00611   0.00186  -0.0594  0.8055  0.0069  -3.2487   0.0000   0.0814
  -5.600  -0.3596   0.00606   0.00181  -0.0595  0.8035  0.0074  -3.1425   0.0000   0.0763
  -5.500  -0.3485   0.00602   0.00177  -0.0595  0.8013  0.0077  -3.0372   0.0000   0.0709
  -5.400  -0.3374   0.00597   0.00172  -0.0596  0.7997  0.0086  -2.9337   0.0000   0.0650
  -5.300  -0.3262   0.00591   0.00168  -0.0597  0.7979  0.0095  -2.8309   0.0000   0.0587
  -5.200  -0.3151   0.00587   0.00163  -0.0598  0.7958  0.0101  -2.7290   0.0000   0.0519
  -5.100  -0.3041   0.00582   0.00159  -0.0598  0.7936  0.0116  -2.6296   0.0000   0.0449
  -5.000  -0.2930   0.00578   0.00155  -0.0599  0.7913  0.0126  -2.5309   0.0000   0.0372
  -4.900  -0.2817   0.00573   0.00151  -0.0600  0.7898  0.0136  -2.4327   0.0000   0.0286
  -4.800  -0.2706   0.00568   0.00146  -0.0600  0.7880  0.0150  -2.3364   0.0000   0.0195
  -4.600  -0.2484   0.00559   0.00139  -0.0602  0.7837  0.0182  -2.1480   0.0000  -0.0010
  -4.500  -0.2372   0.00555   0.00135  -0.0602  0.7815  0.0198  -2.0558   0.0000  -0.0128
  -4.400  -0.2260   0.00550   0.00131  -0.0603  0.7798  0.0220  -1.9646   0.0000  -0.0259
  -4.300  -0.2149   0.00545   0.00127  -0.0604  0.7777  0.0246  -1.8749   0.0000  -0.0402
  -4.200  -0.2038   0.00541   0.00124  -0.0604  0.7753  0.0275  -1.7867   0.0000  -0.0560
  -4.100  -0.1928   0.00536   0.00120  -0.0605  0.7727  0.0319  -1.7007   0.0000  -0.0732
  -4.000  -0.1817   0.00531   0.00116  -0.0605  0.7707  0.0358  -1.6151   0.0000  -0.0930
  -3.800  -0.1595   0.00521   0.00109  -0.0606  0.7660  0.0442  -1.4478   0.0000  -0.1408
  -3.700  -0.1485   0.00517   0.00106  -0.0607  0.7634  0.0491  -1.3736   0.0000  -0.1697
  -3.600  -0.1374   0.00512   0.00103  -0.0607  0.7612  0.0544  -1.3024   0.0000  -0.2035
  -3.500  -0.1262   0.00507   0.00100  -0.0608  0.7590  0.0603  -1.2321   0.0000  -0.2436
  -3.400  -0.1152   0.00502   0.00097  -0.0609  0.7562  0.0668  -1.1631   0.0000  -0.2909
  -3.300  -0.1043   0.00498   0.00094  -0.0609  0.7531  0.0739  -1.0955   0.0000  -0.3473
  -3.200  -0.0932   0.00493   0.00091  -0.0609  0.7507  0.0805  -1.0284   0.0000  -0.4185
  -3.100  -0.0820   0.00489   0.00088  -0.0610  0.7481  0.0873  -0.9623   0.0000  -0.5091
  -3.000  -0.0710   0.00485   0.00086  -0.0610  0.7449  0.0942  -0.8975   0.0000  -0.6266
  -2.900  -0.0601   0.00481   0.00083  -0.0611  0.7416  0.1014  -0.8339   0.0000  -0.7865
  -2.800  -0.0491   0.00475   0.00080  -0.0611  0.7389  0.1125  -0.7715   0.0000  -1.0180
  -2.700  -0.0383   0.00468   0.00078  -0.0611  0.7353  0.1272  -0.7111   0.0000  -1.3718
  -2.600  -0.0277   0.00462   0.00075  -0.0611  0.7316  0.1425  -0.6642   0.0000  -1.9935
  -2.500  -0.0167   0.00456   0.00072  -0.0611  0.7286  0.1547  -0.6240   0.0000  -3.4695
  -2.400  -0.0057   0.00453   0.00071  -0.0612  0.7244  0.1635  -0.5856   0.0000  -10.5813
  -2.300   0.0051   0.00449   0.00069  -0.0612  0.7201  0.1765  -0.5506   0.0000  12.5288
  -2.200   0.0158   0.00443   0.00066  -0.0612  0.7157  0.1918  -0.5193   0.0000   4.1692
  -2.100   0.0264   0.00438   0.00064  -0.0611  0.7108  0.2079  -0.4946   0.0000   2.5952
  -2.000   0.0372   0.00432   0.00062  -0.0611  0.7069  0.2239  -0.4712   0.0000   1.9116
  -1.900   0.0478   0.00427   0.00060  -0.0611  0.7016  0.2421  -0.4483   0.0000   1.5437
  -1.800   0.0584   0.00421   0.00058  -0.0611  0.6968  0.2603  -0.4255   0.0000   1.3066
  -1.700   0.0691   0.00418   0.00057  -0.0610  0.6905  0.2741  -0.4039   0.0000   1.1426
  -1.600   0.0799   0.00415   0.00056  -0.0611  0.6851  0.2860  -0.3904   0.0000   1.0208
  -1.500   0.0905   0.00412   0.00055  -0.0610  0.6787  0.3001  -0.3951   0.0000   0.9297
  -1.300   0.1118   0.00404   0.00052  -0.0610  0.6667  0.3312  -0.4046   0.0000   0.7989
  -1.200   0.1220   0.00397   0.00051  -0.0609  0.6601  0.3566  -0.4095   0.0000   0.7517
  -1.100   0.1323   0.00390   0.00049  -0.0608  0.6542  0.3839  -0.4146   0.0000   0.7119
  -1.000   0.1426   0.00385   0.00048  -0.0607  0.6477  0.4061  -0.4201   0.0000   0.6776
  -0.900   0.1533   0.00382   0.00047  -0.0607  0.6414  0.4202  -0.4258   0.0000   0.6472
  -0.800   0.1639   0.00381   0.00047  -0.0606  0.6342  0.4331  -0.4315   0.0000   0.6210
  -0.700   0.1745   0.00379   0.00047  -0.0606  0.6267  0.4469  -0.4374   0.0000   0.5979
  -0.600   0.1850   0.00376   0.00046  -0.0605  0.6191  0.4647  -0.4432   0.0000   0.5777
  -0.500   0.1953   0.00374   0.00046  -0.0605  0.6102  0.4824  -0.4494   0.0000   0.5597
  -0.400   0.2054   0.00373   0.00046  -0.0603  0.5990  0.5006  -0.4558   0.0000   0.5435
  -0.300   0.2156   0.00373   0.00046  -0.0602  0.5874  0.5160  -0.4622   0.0000   0.5289
  -0.200   0.2259   0.00375   0.00047  -0.0601  0.5744  0.5283  -0.4687   0.0000   0.5155
  -0.100   0.2361   0.00377   0.00048  -0.0600  0.5613  0.5404  -0.4755   0.0000   0.5033
   0.000   0.2464   0.00379   0.00049  -0.0599  0.5490  0.5528  -0.4827   0.0000   0.4921
   0.100   0.2566   0.00381   0.00051  -0.0597  0.5361  0.5652  -0.4899   0.0000   0.4818
   0.200   0.2668   0.00384   0.00052  -0.0596  0.5227  0.5762  -0.4972   0.0000   0.4723
   0.300   0.2771   0.00388   0.00053  -0.0595  0.5093  0.5855  -0.5046   0.0000   0.4635
   0.400   0.2875   0.00392   0.00055  -0.0594  0.4958  0.5924  -0.5124   0.0000   0.4553
   0.500   0.2979   0.00397   0.00057  -0.0594  0.4816  0.5978  -0.5206   0.0000   0.4476
   0.600   0.3085   0.00403   0.00059  -0.0593  0.4690  0.6017  -0.5295   0.0000   0.4405
   0.700   0.3192   0.00406   0.00061  -0.0593  0.4591  0.6065  -0.5387   0.0000   0.4339
   0.900   0.3406   0.00412   0.00064  -0.0592  0.4411  0.6196  -0.5583   0.0000   0.4218
   1.000   0.3514   0.00414   0.00066  -0.0592  0.4326  0.6272  -0.5683   0.0000   0.4164
   1.100   0.3620   0.00418   0.00068  -0.0592  0.4219  0.6349  -0.5788   0.0000   0.4112
   1.200   0.3724   0.00422   0.00070  -0.0591  0.4098  0.6438  -0.5892   0.0000   0.4063
   1.300   0.3827   0.00427   0.00072  -0.0590  0.3971  0.6516  -0.5996   0.0000   0.4017
   1.400   0.3933   0.00432   0.00075  -0.0590  0.3860  0.6579  -0.6102   0.0000   0.3974
   1.500   0.4039   0.00436   0.00077  -0.0589  0.3753  0.6650  -0.6223   0.0000   0.3932
   1.600   0.4145   0.00441   0.00080  -0.0589  0.3641  0.6702  -0.6360   0.0000   0.3893
   1.700   0.4250   0.00446   0.00082  -0.0588  0.3527  0.6760  -0.6507   0.0000   0.3856
   1.800   0.4356   0.00452   0.00085  -0.0588  0.3419  0.6798  -0.6655   0.0000   0.3820
   1.900   0.4463   0.00457   0.00087  -0.0587  0.3317  0.6837  -0.6804   0.0000   0.3786
   2.000   0.4570   0.00461   0.00090  -0.0587  0.3226  0.6875  -0.6955   0.0000   0.3754
   2.100   0.4678   0.00467   0.00093  -0.0587  0.3136  0.6906  -0.7124   0.0000   0.3724
   2.200   0.4783   0.00473   0.00096  -0.0587  0.3022  0.6940  -0.7293   0.0000   0.3694
   2.300   0.4887   0.00480   0.00100  -0.0586  0.2889  0.6979  -0.7476   0.0000   0.3666
   2.400   0.4991   0.00488   0.00103  -0.0585  0.2762  0.7012  -0.7660   0.0000   0.3638
   2.500   0.5097   0.00495   0.00107  -0.0585  0.2655  0.7043  -0.7847   0.0000   0.3613
   2.600   0.5205   0.00499   0.00109  -0.0585  0.2582  0.7081  -0.8038   0.0000   0.3588
   2.700   0.5313   0.00504   0.00112  -0.0585  0.2511  0.7112  -0.8257   0.0000   0.3564
   2.800   0.5421   0.00510   0.00115  -0.0585  0.2432  0.7133  -0.8488   0.0000   0.3542
   2.900   0.5528   0.00515   0.00119  -0.0585  0.2351  0.7159  -0.8721   0.0000   0.3520
   3.000   0.5634   0.00522   0.00123  -0.0584  0.2254  0.7184  -0.8953   0.0000   0.3498
   3.100   0.5738   0.00530   0.00127  -0.0584  0.2131  0.7205  -0.9184   0.0000   0.3477
   3.200   0.5839   0.00540   0.00132  -0.0582  0.1983  0.7222  -0.9430   0.0000   0.3457
   3.300   0.5942   0.00550   0.00137  -0.0581  0.1855  0.7237  -0.9688   0.0000   0.3437
   3.500   0.6151   0.00566   0.00146  -0.0580  0.1642  0.7270  -1.0275   0.0000   0.3400
   3.600   0.6253   0.00576   0.00151  -0.0579  0.1517  0.7288  -1.0629   0.0000   0.3382
   3.700   0.6357   0.00585   0.00156  -0.0578  0.1417  0.7305  -1.0992   0.0000   0.3365
   3.800   0.6462   0.00593   0.00160  -0.0578  0.1330  0.7321  -1.1450   0.0000   0.3349
   3.900   0.6569   0.00600   0.00165  -0.0578  0.1263  0.7335  -1.1963   0.0000   0.3333
   4.000   0.6675   0.00607   0.00169  -0.0577  0.1191  0.7346  -1.2481   0.0000   0.3318
   4.200   0.6886   0.00622   0.00179  -0.0577  0.1051  0.7375  -1.3553   0.0000   0.3288
   4.300   0.6991   0.00629   0.00184  -0.0576  0.0984  0.7392  -1.4138   0.0000   0.3274
   4.400   0.7096   0.00637   0.00189  -0.0576  0.0915  0.7407  -1.4728   0.0000   0.3261
   4.500   0.7201   0.00645   0.00194  -0.0575  0.0860  0.7421  -1.5329   0.0000   0.3247
   4.600   0.7309   0.00651   0.00199  -0.0575  0.0817  0.7433  -1.5942   0.0000   0.3234
   4.700   0.7415   0.00658   0.00204  -0.0575  0.0767  0.7444  -1.6558   0.0000   0.3222
   4.800   0.7520   0.00666   0.00209  -0.0574  0.0716  0.7454  -1.7179   0.0000   0.3210
   4.900   0.7625   0.00673   0.00214  -0.0574  0.0666  0.7462  -1.7851   0.0000   0.3198
   5.000   0.7731   0.00681   0.00220  -0.0574  0.0621  0.7476  -1.8548   0.0000   0.3186
   5.100   0.7833   0.00690   0.00226  -0.0573  0.0559  0.7492  -1.9274   0.0000   0.3174
   5.200   0.7937   0.00699   0.00232  -0.0572  0.0503  0.7506  -2.0052   0.0000   0.3163
   5.300   0.8040   0.00707   0.00239  -0.0571  0.0454  0.7519  -2.0842   0.0000   0.3152
   5.500   0.8249   0.00723   0.00251  -0.0570  0.0379  0.7542  -2.2460   0.0000   0.3130
   5.600   0.8355   0.00731   0.00257  -0.0570  0.0352  0.7552  -2.3290   0.0000   0.3120
   5.700   0.8459   0.00739   0.00263  -0.0569  0.0318  0.7560  -2.4121   0.0000   0.3110
   5.800   0.8563   0.00748   0.00270  -0.0568  0.0287  0.7566  -2.4962   0.0000   0.3100
   5.900   0.8668   0.00755   0.00276  -0.0568  0.0264  0.7573  -2.5820   0.0000   0.3091
   6.000   0.8772   0.00763   0.00283  -0.0567  0.0240  0.7586  -2.6682   0.0000   0.3081
   6.100   0.8876   0.00771   0.00289  -0.0567  0.0221  0.7598  -2.7555   0.0000   0.3072
   6.200   0.8981   0.00778   0.00296  -0.0566  0.0204  0.7610  -2.8441   0.0000   0.3063
   6.300   0.9084   0.00786   0.00302  -0.0566  0.0188  0.7620  -2.9333   0.0000   0.3054
   6.400   0.9189   0.00793   0.00309  -0.0565  0.0174  0.7630  -3.0240   0.0000   0.3045
   6.500   0.9293   0.00800   0.00315  -0.0565  0.0161  0.7639  -3.1155   0.0000   0.3037
   6.600   0.9397   0.00808   0.00322  -0.0564  0.0146  0.7648  -3.2074   0.0000   0.3028
   6.700   0.9501   0.00816   0.00329  -0.0564  0.0138  0.7656  -3.3011   0.0000   0.3020
   6.800   0.9605   0.00824   0.00336  -0.0563  0.0128  0.7663  -3.3950   0.0000   0.3012
   6.900   0.9709   0.00831   0.00343  -0.0562  0.0120  0.7669  -3.4904   0.0000   0.3004
   7.000   0.9814   0.00838   0.00349  -0.0562  0.0115  0.7675  -3.5949   0.0000   0.2996
   7.100   0.9917   0.00846   0.00356  -0.0561  0.0109  0.7683  -3.7011   0.0000   0.2988
   7.200   1.0019   0.00854   0.00364  -0.0561  0.0100  0.7696  -3.8077   0.0000   0.2981
   7.300   1.0123   0.00861   0.00371  -0.0560  0.0096  0.7707  -3.9164   0.0000   0.2973
   7.400   1.0227   0.00868   0.00377  -0.0559  0.0094  0.7717  -4.0268   0.0000   0.2966
   7.500   1.0330   0.00875   0.00384  -0.0559  0.0091  0.7727  -4.1380   0.0000   0.2959
   7.600   1.0433   0.00883   0.00392  -0.0558  0.0088  0.7736  -4.2498   0.0000   0.2951
   7.700   1.0534   0.00891   0.00400  -0.0557  0.0084  0.7745  -4.3623   0.0000   0.2944
   7.800   1.0636   0.00899   0.00408  -0.0556  0.0079  0.7753  -4.4755   0.0000   0.2937
   7.900   1.0738   0.00908   0.00416  -0.0555  0.0075  0.7760  -4.5895   0.0000   0.2930
   8.000   1.0841   0.00915   0.00423  -0.0555  0.0074  0.7767  -4.7067   0.0000   0.2923
   8.100   1.0944   0.00922   0.00430  -0.0554  0.0073  0.7772  -4.8249   0.0000   0.2917
   8.200   1.1046   0.00930   0.00437  -0.0553  0.0072  0.7777  -4.9439   0.0000   0.2910
   8.300   1.1148   0.00937   0.00444  -0.0553  0.0071  0.7781  -5.0637   0.0000   0.2904
   8.400   1.1248   0.00946   0.00452  -0.0552  0.0069  0.7788  -5.1841   0.0000   0.2897
   8.500   1.1348   0.00954   0.00461  -0.0550  0.0066  0.7799  -5.3049   0.0000   0.2890
   8.600   1.1447   0.00963   0.00470  -0.0549  0.0064  0.7809  -5.4262   0.0000   0.2884
   8.700   1.1546   0.00973   0.00479  -0.0548  0.0060  0.7819  -5.5478   0.0000   0.2877
   8.800   1.1644   0.00982   0.00488  -0.0546  0.0057  0.7828  -5.6696   0.0000   0.2871
   8.900   1.1744   0.00991   0.00497  -0.0545  0.0055  0.7836  -5.7969   0.0000   0.2864
   9.000   1.1844   0.00999   0.00505  -0.0544  0.0055  0.7844  -5.9344   0.0000   0.2858
   9.100   1.1943   0.01007   0.00513  -0.0543  0.0054  0.7852  -6.0729   0.0000   0.2852
   9.200   1.2042   0.01015   0.00522  -0.0542  0.0053  0.7859  -6.2122   0.0000   0.2846
   9.300   1.2140   0.01024   0.00530  -0.0540  0.0052  0.7866  -6.3522   0.0000   0.2840
   9.400   1.2238   0.01034   0.00540  -0.0539  0.0051  0.7872  -6.4929   0.0000   0.2834
   9.500   1.2334   0.01043   0.00549  -0.0537  0.0049  0.7877  -6.6342   0.0000   0.2827
   9.600   1.2430   0.01054   0.00559  -0.0535  0.0048  0.7881  -6.7761   0.0000   0.2821
   9.700   1.2525   0.01065   0.00570  -0.0533  0.0046  0.7885  -6.9183   0.0000   0.2815
   9.800   1.2619   0.01076   0.00581  -0.0531  0.0043  0.7892  -7.0607   0.0000   0.2809
   9.900   1.2712   0.01087   0.00592  -0.0529  0.0041  0.7903  -7.2029   0.0000   0.2803
  10.000   1.2805   0.01098   0.00604  -0.0527  0.0039  0.7913  -7.3449   0.0000   0.2796
  10.100   1.2900   0.01108   0.00614  -0.0525  0.0039  0.7923  -7.4934   0.0000   0.2790
  10.200   1.2995   0.01117   0.00624  -0.0523  0.0039  0.7931  -7.6428   0.0000   0.2784
  10.300   1.3089   0.01127   0.00633  -0.0521  0.0038  0.7940  -7.7930   0.0000   0.2779
  10.400   1.3183   0.01137   0.00644  -0.0519  0.0038  0.7948  -7.9441   0.0000   0.2773
  10.500   1.3276   0.01147   0.00654  -0.0517  0.0038  0.7955  -8.0961   0.0000   0.2767
  10.600   1.3369   0.01157   0.00664  -0.0515  0.0038  0.7962  -8.2489   0.0000   0.2761
  10.700   1.3461   0.01167   0.00675  -0.0512  0.0037  0.7969  -8.4024   0.0000   0.2755
  10.800   1.3552   0.01178   0.00686  -0.0510  0.0037  0.7975  -8.5564   0.0000   0.2749
  10.900   1.3640   0.01189   0.00697  -0.0507  0.0036  0.7980  -8.7094   0.0000   0.2743
  11.000   1.3723   0.01200   0.00707  -0.0503  0.0036  0.7985  -8.8601   0.0000   0.2736
  11.100   1.3804   0.01210   0.00718  -0.0498  0.0035  0.7990  -9.0098   0.0000   0.2729
  11.300   1.3969   0.01234   0.00742  -0.0490  0.0034  0.8009  -9.3140   0.0000   0.2716
  11.400   1.4051   0.01246   0.00755  -0.0486  0.0033  0.8019  -9.4674   0.0000   0.2709
  11.500   1.4132   0.01259   0.00769  -0.0481  0.0032  0.8029  -9.6214   0.0000   0.2703
  11.600   1.4213   0.01272   0.00782  -0.0477  0.0032  0.8039  -9.7755   0.0000   0.2696
  11.700   1.4293   0.01286   0.00796  -0.0473  0.0031  0.8048  -9.9299   0.0000   0.2690
  11.800   1.4372   0.01299   0.00810  -0.0468  0.0030  0.8057  -10.0845   0.0000   0.2683
  11.900   1.4451   0.01314   0.00825  -0.0464  0.0030  0.8065  -10.2391   0.0000   0.2677
  12.000   1.4528   0.01328   0.00840  -0.0459  0.0029  0.8073  -10.3938   0.0000   0.2670
  12.100   1.4605   0.01343   0.00855  -0.0454  0.0028  0.8081  -10.5496   0.0000   0.2664
  12.200   1.4681   0.01358   0.00871  -0.0449  0.0028  0.8087  -10.7156   0.0000   0.2657
  12.300   1.4756   0.01374   0.00887  -0.0444  0.0027  0.8093  -10.8819   0.0000   0.2650
  12.500   1.4902   0.01406   0.00922  -0.0434  0.0026  0.8117  -11.2140   0.0000   0.2637
  12.600   1.4974   0.01423   0.00940  -0.0428  0.0025  0.8128  -11.3802   0.0000   0.2630
  12.700   1.5049   0.01437   0.00955  -0.0424  0.0025  0.8139  -11.5537   0.0000   0.2624
  12.800   1.5124   0.01451   0.00970  -0.0419  0.0025  0.8149  -11.7279   0.0000   0.2618
  12.900   1.5199   0.01466   0.00985  -0.0414  0.0025  0.8159  -11.9027   0.0000   0.2612
  13.000   1.5273   0.01481   0.01001  -0.0409  0.0025  0.8168  -12.0780   0.0000   0.2606
  13.100   1.5346   0.01497   0.01017  -0.0405  0.0025  0.8176  -12.2540   0.0000   0.2599
  13.200   1.5418   0.01513   0.01033  -0.0400  0.0025  0.8184  -12.4305   0.0000   0.2593
  13.300   1.5490   0.01529   0.01050  -0.0395  0.0025  0.8192  -12.6075   0.0000   0.2587
  13.500   1.5632   0.01562   0.01085  -0.0385  0.0025  0.8216  -12.9628   0.0000   0.2575
  13.600   1.5702   0.01579   0.01103  -0.0380  0.0025  0.8231  -13.1409   0.0000   0.2569
  13.700   1.5772   0.01596   0.01121  -0.0374  0.0025  0.8245  -13.3193   0.0000   0.2563
  13.800   1.5840   0.01614   0.01140  -0.0369  0.0025  0.8258  -13.4982   0.0000   0.2556
  13.900   1.5908   0.01632   0.01159  -0.0364  0.0025  0.8271  -13.6774   0.0000   0.2550
  14.000   1.5976   0.01651   0.01178  -0.0359  0.0025  0.8283  -13.8573   0.0000   0.2544
  14.100   1.6042   0.01670   0.01198  -0.0354  0.0024  0.8294  -14.0370   0.0000   0.2538
  14.300   1.6172   0.01709   0.01240  -0.0343  0.0024  0.8331  -14.3965   0.0000   0.2526
  14.400   1.6236   0.01729   0.01261  -0.0337  0.0024  0.8349  -14.5766   0.0000   0.2520
  14.500   1.6300   0.01750   0.01283  -0.0332  0.0024  0.8366  -14.7574   0.0000   0.2514
  14.600   1.6362   0.01772   0.01306  -0.0326  0.0024  0.8383  -14.9376   0.0000   0.2508
  14.800   1.6483   0.01817   0.01353  -0.0315  0.0023  0.8426  -15.2971   0.0000   0.2496
  14.900   1.6543   0.01840   0.01378  -0.0309  0.0023  0.8452  -15.4767   0.0000   0.2489
  15.000   1.6601   0.01864   0.01403  -0.0303  0.0023  0.8477  -15.6566   0.0000   0.2483
  15.100   1.6659   0.01889   0.01429  -0.0297  0.0023  0.8507  -15.8358   0.0000   0.2477
  15.200   1.6715   0.01914   0.01456  -0.0291  0.0022  0.8545  -16.0152   0.0000   0.2471
  15.400   1.6823   0.01965   0.01512  -0.0279  0.0022  0.8646  -16.3701   0.0000   0.2459
  15.500   1.6875   0.01992   0.01541  -0.0273  0.0021  0.8728  -16.5464   0.0000   0.2452
  15.600   1.6924   0.02018   0.01572  -0.0266  0.0021  0.8866  -16.7201   0.0000   0.2446
  15.800   1.7021   0.02057   0.01635  -0.0252  0.0021  1.0000  -17.0694   0.0000   0.2433
  15.900   1.7071   0.02088   0.01668  -0.0246  0.0020  1.0000  -17.2457   0.0000   0.2427
  16.000   1.7118   0.02121   0.01702  -0.0240  0.0020  1.0000  -17.4203   0.0000   0.2421
  16.100   1.7164   0.02155   0.01736  -0.0233  0.0020  1.0000  -17.5936   0.0000   0.2415
  16.200   1.7209   0.02189   0.01772  -0.0227  0.0019  1.0000  -17.7674   0.0000   0.2409
  16.300   1.7252   0.02225   0.01809  -0.0221  0.0019  1.0000  -17.9392   0.0000   0.2403
  16.400   1.7296   0.02261   0.01846  -0.0214  0.0019  1.0000  -18.1119   0.0000   0.2397
  16.500   1.7338   0.02299   0.01886  -0.0208  0.0018  1.0000  -18.2822   0.0000   0.2391
  16.600   1.7379   0.02338   0.01926  -0.0202  0.0018  1.0000  -18.4530   0.0000   0.2385
  16.700   1.7418   0.02378   0.01967  -0.0195  0.0018  1.0000  -18.6218   0.0000   0.2379
  16.800   1.7455   0.02419   0.02010  -0.0189  0.0017  1.0000  -18.7885   0.0000   0.2372
  16.900   1.7491   0.02461   0.02053  -0.0183  0.0017  1.0000  -18.9543   0.0000   0.2366
  17.000   1.7526   0.02505   0.02099  -0.0176  0.0017  1.0000  -19.1182   0.0000   0.2360
  17.100   1.7560   0.02550   0.02145  -0.0170  0.0017  1.0000  -19.2827   0.0000   0.2354
  17.200   1.7591   0.02597   0.02194  -0.0163  0.0016  1.0000  -19.4441   0.0000   0.2348
  17.300   1.7624   0.02644   0.02243  -0.0157  0.0016  1.0000  -19.6066   0.0000   0.2342
  17.400   1.7652   0.02694   0.02295  -0.0151  0.0016  1.0000  -19.7651   0.0000   0.2336
  17.500   1.7681   0.02745   0.02347  -0.0145  0.0016  1.0000  -19.9246   0.0000   0.2331
  17.600   1.7707   0.02799   0.02403  -0.0138  0.0015  1.0000  -20.0794   0.0000   0.2325
  17.700   1.7731   0.02852   0.02458  -0.0132  0.0015  1.0000  -20.2335   0.0000   0.2319
  17.800   1.7751   0.02909   0.02518  -0.0126  0.0015  1.0000  -20.3825   0.0000   0.2313
  17.900   1.7772   0.02967   0.02578  -0.0119  0.0015  1.0000  -20.5324   0.0000   0.2307
  18.000   1.7798   0.03023   0.02635  -0.0114  0.0015  1.0000  -20.6915   0.0000   0.2301
  18.100   1.7827   0.03076   0.02690  -0.0109  0.0015  1.0000  -20.8564   0.0000   0.2296
  18.200   1.7852   0.03133   0.02748  -0.0104  0.0015  1.0000  -21.0176   0.0000   0.2291
  18.300   1.7879   0.03190   0.02807  -0.0099  0.0015  1.0000  -21.1806   0.0000   0.2286
  18.400   1.7903   0.03250   0.02869  -0.0094  0.0015  1.0000  -21.3400   0.0000   0.2281
  18.500   1.7928   0.03311   0.02931  -0.0090  0.0015  1.0000  -21.5008   0.0000   0.2276
  18.600   1.7950   0.03374   0.02996  -0.0085  0.0015  1.0000  -21.6584   0.0000   0.2271
  18.700   1.7971   0.03438   0.03062  -0.0081  0.0015  1.0000  -21.8157   0.0000   0.2266
  18.800   1.7989   0.03505   0.03130  -0.0076  0.0015  1.0000  -21.9689   0.0000   0.2261
  18.900   1.8008   0.03573   0.03200  -0.0072  0.0015  1.0000  -22.1228   0.0000   0.2256
  19.000   1.8024   0.03644   0.03273  -0.0068  0.0015  1.0000  -22.2736   0.0000   0.2251
  19.100   1.8041   0.03716   0.03347  -0.0064  0.0015  1.0000  -22.4257   0.0000   0.2247
  19.200   1.8055   0.03792   0.03425  -0.0061  0.0015  1.0000  -22.5737   0.0000   0.2242
  19.300   1.8070   0.03868   0.03503  -0.0057  0.0015  1.0000  -22.7235   0.0000   0.2238
  19.400   1.8081   0.03950   0.03586  -0.0054  0.0015  1.0000  -22.8675   0.0000   0.2233
  19.500   1.8094   0.04030   0.03668  -0.0051  0.0015  1.0000  -23.0145   0.0000   0.2229
  19.600   1.8101   0.04117   0.03757  -0.0048  0.0015  1.0000  -23.1545   0.0000   0.2225
  19.700   1.8111   0.04203   0.03845  -0.0046  0.0015  1.0000  -23.2976   0.0000   0.2221
  19.800   1.8117   0.04294   0.03939  -0.0043  0.0015  1.0000  -23.4339   0.0000   0.2217
  19.900   1.8122   0.04387   0.04033  -0.0041  0.0014  1.0000  -23.5707   0.0000   0.2213
  20.000   1.8125   0.04482   0.04131  -0.0039  0.0014  1.0000  -23.7034   0.0000   0.2210


