xflr5 v6.32

 Calculated polar for: finalfoil mod1

 1 1 Reynolds number fixed          Mach number fixed         

 xtrf =   1.000 (top)        1.000 (bottom)
 Mach =   0.000     Re =     0.500 e 6     Ncrit =   9.000

  alpha     CL        CD       CDp       Cm    Top Xtr Bot Xtr   Cpmin    Chinge    XCp    
 ------- -------- --------- --------- -------- ------- ------- -------- --------- ---------
 -10.000  -0.7149   0.03654   0.03247  -0.0721  0.9838  0.0126  -5.9420   0.0000   0.1381
  -9.900  -0.7112   0.03488   0.03069  -0.0723  0.9823  0.0125  -5.9501   0.0000   0.1374
  -9.800  -0.7061   0.03319   0.02883  -0.0727  0.9813  0.0124  -5.9628   0.0000   0.1362
  -9.700  -0.7013   0.03168   0.02715  -0.0727  0.9798  0.0123  -5.9750   0.0000   0.1355
  -9.600  -0.6952   0.03021   0.02551  -0.0728  0.9786  0.0123  -5.9820   0.0000   0.1345
  -9.500  -0.6875   0.02882   0.02394  -0.0731  0.9779  0.0122  -5.9786   0.0000   0.1329
  -9.400  -0.6787   0.02754   0.02249  -0.0735  0.9773  0.0122  -5.9622   0.0000   0.1310
  -9.300  -0.6717   0.02653   0.02133  -0.0733  0.9755  0.0123  -5.9379   0.0000   0.1303
  -9.200  -0.6626   0.02555   0.02020  -0.0735  0.9746  0.0123  -5.8999   0.0000   0.1286
  -9.100  -0.6525   0.02464   0.01915  -0.0737  0.9739  0.0124  -5.8503   0.0000   0.1265
  -9.000  -0.6418   0.02381   0.01820  -0.0741  0.9733  0.0124  -5.7908   0.0000   0.1241
  -8.900  -0.6333   0.02316   0.01743  -0.0739  0.9717  0.0125  -5.7314   0.0000   0.1229
  -8.800  -0.6233   0.02253   0.01670  -0.0740  0.9706  0.0126  -5.6613   0.0000   0.1209
  -8.700  -0.6123   0.02203   0.01609  -0.0743  0.9698  0.0127  -5.5773   0.0000   0.1184
  -8.600  -0.6015   0.02134   0.01529  -0.0745  0.9691  0.0129  -5.5012   0.0000   0.1158
  -8.500  -0.5917   0.02047   0.01440  -0.0747  0.9683  0.0132  -5.4181   0.0000   0.1135
  -8.400  -0.5828   0.02006   0.01399  -0.0746  0.9666  0.0134  -5.3120   0.0000   0.1119
  -8.300  -0.5722   0.01970   0.01361  -0.0748  0.9656  0.0137  -5.1960   0.0000   0.1092
  -8.200  -0.5610   0.01934   0.01322  -0.0751  0.9648  0.0140  -5.0842   0.0000   0.1061
  -8.100  -0.5496   0.01895   0.01280  -0.0754  0.9641  0.0142  -4.9789   0.0000   0.1028
  -8.000  -0.5414   0.01861   0.01242  -0.0750  0.9621  0.0144  -4.8954   0.0000   0.1015
  -7.900  -0.5314   0.01821   0.01197  -0.0749  0.9609  0.0147  -4.8088   0.0000   0.0991
  -7.800  -0.5209   0.01781   0.01153  -0.0750  0.9599  0.0149  -4.7206   0.0000   0.0961
  -7.700  -0.5102   0.01743   0.01111  -0.0751  0.9591  0.0151  -4.6306   0.0000   0.0929
  -7.600  -0.5023   0.01715   0.01079  -0.0745  0.9570  0.0154  -4.5516   0.0000   0.0917
  -7.500  -0.4926   0.01687   0.01046  -0.0744  0.9557  0.0156  -4.4628   0.0000   0.0891
  -7.400  -0.4827   0.01652   0.01007  -0.0743  0.9546  0.0158  -4.3756   0.0000   0.0862
  -7.300  -0.4746   0.01600   0.00955  -0.0741  0.9535  0.0162  -4.2969   0.0000   0.0842
  -7.200  -0.4675   0.01572   0.00928  -0.0735  0.9512  0.0165  -4.2107   0.0000   0.0832
  -7.100  -0.4584   0.01546   0.00901  -0.0733  0.9499  0.0169  -4.1129   0.0000   0.0805
  -7.000  -0.4485   0.01521   0.00875  -0.0732  0.9488  0.0174  -4.0145   0.0000   0.0772
  -6.900  -0.4396   0.01499   0.00850  -0.0729  0.9473  0.0178  -3.9233   0.0000   0.0746
  -6.800  -0.4314   0.01479   0.00828  -0.0724  0.9454  0.0184  -3.8375   0.0000   0.0725
  -6.700  -0.4217   0.01461   0.00806  -0.0722  0.9441  0.0189  -3.7446   0.0000   0.0692
  -6.600  -0.4133   0.01424   0.00769  -0.0719  0.9429  0.0197  -3.6585   0.0000   0.0664
  -6.500  -0.4044   0.01406   0.00751  -0.0717  0.9415  0.0205  -3.5606   0.0000   0.0633
  -6.400  -0.3958   0.01391   0.00735  -0.0713  0.9396  0.0215  -3.4691   0.0000   0.0605
  -6.300  -0.3861   0.01375   0.00716  -0.0711  0.9383  0.0225  -3.3777   0.0000   0.0564
  -6.200  -0.3775   0.01343   0.00685  -0.0708  0.9371  0.0238  -3.2955   0.0000   0.0530
  -6.100  -0.3676   0.01325   0.00665  -0.0706  0.9361  0.0252  -3.2180   0.0000   0.0485
  -6.000  -0.3598   0.01307   0.00645  -0.0701  0.9339  0.0268  -3.1531   0.0000   0.0459
  -5.900  -0.3509   0.01287   0.00626  -0.0698  0.9324  0.0287  -3.0766   0.0000   0.0417
  -5.800  -0.3413   0.01266   0.00605  -0.0696  0.9312  0.0313  -3.0015   0.0000   0.0368
  -5.700  -0.3312   0.01248   0.00586  -0.0694  0.9303  0.0348  -2.9219   0.0000   0.0309
  -5.600  -0.3229   0.01230   0.00570  -0.0690  0.9284  0.0390  -2.8475   0.0000   0.0268
  -5.500  -0.3143   0.01211   0.00555  -0.0686  0.9267  0.0449  -2.7713   0.0000   0.0221
  -5.400  -0.3052   0.01189   0.00538  -0.0684  0.9254  0.0535  -2.6916   0.0000   0.0164
  -5.300  -0.2957   0.01167   0.00521  -0.0682  0.9243  0.0657  -2.6099   0.0000   0.0099
  -5.200  -0.2862   0.01144   0.00506  -0.0680  0.9234  0.0811  -2.5266   0.0000   0.0027
  -5.100  -0.2784   0.01127   0.00497  -0.0675  0.9212  0.0974  -2.4500   0.0000  -0.0022
  -5.000  -0.2696   0.01108   0.00486  -0.0673  0.9196  0.1159  -2.3689   0.0000  -0.0091
  -4.900  -0.2603   0.01087   0.00474  -0.0671  0.9184  0.1360  -2.2861   0.0000  -0.0174
  -4.800  -0.2508   0.01067   0.00462  -0.0669  0.9174  0.1578  -2.2029   0.0000  -0.0267
  -4.700  -0.2415   0.01045   0.00450  -0.0667  0.9163  0.1821  -2.1213   0.0000  -0.0363
  -4.600  -0.2338   0.01027   0.00441  -0.0663  0.9141  0.2075  -2.0470   0.0000  -0.0434
  -4.500  -0.2253   0.01002   0.00430  -0.0659  0.9125  0.2393  -1.9704   0.0000  -0.0527
  -4.400  -0.2169   0.00974   0.00417  -0.0656  0.9113  0.2788  -1.8946   0.0000  -0.0628
  -4.300  -0.2087   0.00941   0.00403  -0.0653  0.9102  0.3260  -1.8203   0.0000  -0.0733
  -4.200  -0.2013   0.00909   0.00391  -0.0648  0.9088  0.3781  -1.7501   0.0000  -0.0824
  -4.100  -0.1949   0.00879   0.00383  -0.0642  0.9066  0.4317  -1.6840   0.0000  -0.0896
  -4.000  -0.1875   0.00850   0.00374  -0.0636  0.9051  0.4844  -1.6145   0.0000  -0.0997
  -3.900  -0.1792   0.00826   0.00367  -0.0632  0.9039  0.5303  -1.5420   0.0000  -0.1131
  -3.800  -0.1700   0.00808   0.00362  -0.0628  0.9029  0.5678  -1.4685   0.0000  -0.1302
  -3.700  -0.1608   0.00797   0.00360  -0.0624  0.9015  0.5968  -1.4027   0.0000  -0.1490
  -3.600  -0.1520   0.00792   0.00361  -0.0620  0.8995  0.6192  -1.3386   0.0000  -0.1689
  -3.500  -0.1421   0.00787   0.00361  -0.0617  0.8981  0.6383  -1.2719   0.0000  -0.1959
  -3.400  -0.1315   0.00783   0.00360  -0.0615  0.8970  0.6540  -1.2042   0.0000  -0.2298
  -3.300  -0.1206   0.00781   0.00359  -0.0614  0.8960  0.6667  -1.1363   0.0000  -0.2720
  -3.200  -0.1095   0.00779   0.00357  -0.0614  0.8952  0.6772  -1.0687   0.0000  -0.3243
  -3.100  -0.0993   0.00780   0.00359  -0.0612  0.8936  0.6859  -1.0050   0.0000  -0.3806
  -3.000  -0.0892   0.00781   0.00361  -0.0610  0.8918  0.6943  -0.9424   0.0000  -0.4490
  -2.900  -0.0784   0.00782   0.00359  -0.0609  0.8904  0.7023  -0.8787   0.0000  -0.5436
  -2.800  -0.0673   0.00782   0.00360  -0.0608  0.8893  0.7082  -0.8152   0.0000  -0.6725
  -2.700  -0.0559   0.00782   0.00357  -0.0608  0.8883  0.7145  -0.7521   0.0000  -0.8597
  -2.600  -0.0444   0.00782   0.00357  -0.0608  0.8875  0.7195  -0.7012   0.0000  -1.1473
  -2.500  -0.0341   0.00785   0.00358  -0.0607  0.8856  0.7250  -0.6583   0.0000  -1.5595
  -2.400  -0.0237   0.00787   0.00361  -0.0605  0.8839  0.7291  -0.6194   0.0000  -2.3520
  -2.300  -0.0126   0.00789   0.00360  -0.0605  0.8825  0.7341  -0.5807   0.0000  -4.6145
  -2.200  -0.0013   0.00789   0.00360  -0.0604  0.8813  0.7378  -0.5461   0.0000  -45.8811
  -2.100   0.0102   0.00790   0.00359  -0.0605  0.8803  0.7418  -0.5133   0.0000   6.2683
  -2.000   0.0219   0.00790   0.00356  -0.0605  0.8794  0.7462  -0.4879   0.0000   3.0546
  -1.900   0.0318   0.00794   0.00361  -0.0603  0.8771  0.7489  -0.4654   0.0000   2.1726
  -1.800   0.0425   0.00796   0.00363  -0.0602  0.8753  0.7521  -0.4420   0.0000   1.6820
  -1.700   0.0537   0.00796   0.00361  -0.0602  0.8739  0.7557  -0.4196   0.0000   1.3827
  -1.600   0.0652   0.00796   0.00359  -0.0602  0.8726  0.7586  -0.3985   0.0000   1.1824
  -1.500   0.0769   0.00797   0.00359  -0.0602  0.8716  0.7615  -0.3865   0.0000   1.0404
  -1.400   0.0871   0.00801   0.00362  -0.0600  0.8695  0.7655  -0.3912   0.0000   0.9447
  -1.300   0.0975   0.00804   0.00366  -0.0598  0.8675  0.7694  -0.3963   0.0000   0.8680
  -1.200   0.1085   0.00807   0.00370  -0.0596  0.8659  0.7731  -0.4018   0.0000   0.8038
  -1.100   0.1198   0.00809   0.00369  -0.0596  0.8645  0.7777  -0.4077   0.0000   0.7509
  -1.000   0.1313   0.00810   0.00371  -0.0596  0.8634  0.7805  -0.4138   0.0000   0.7062
  -0.900   0.1416   0.00814   0.00375  -0.0594  0.8613  0.7833  -0.4193   0.0000   0.6712
  -0.800   0.1521   0.00815   0.00376  -0.0592  0.8591  0.7862  -0.4250   0.0000   0.6408
  -0.700   0.1633   0.00814   0.00372  -0.0592  0.8573  0.7889  -0.4312   0.0000   0.6137
  -0.600   0.1749   0.00812   0.00371  -0.0593  0.8559  0.7903  -0.4377   0.0000   0.5895
  -0.500   0.1867   0.00811   0.00368  -0.0593  0.8547  0.7919  -0.4447   0.0000   0.5682
  -0.400   0.1968   0.00812   0.00371  -0.0591  0.8522  0.7937  -0.4510   0.0000   0.5506
  -0.300   0.2077   0.00811   0.00370  -0.0591  0.8501  0.7956  -0.4578   0.0000   0.5344
  -0.200   0.2191   0.00810   0.00366  -0.0591  0.8484  0.7978  -0.4648   0.0000   0.5196
  -0.100   0.2307   0.00808   0.00362  -0.0592  0.8469  0.7996  -0.4722   0.0000   0.5062
   0.000   0.2418   0.00806   0.00361  -0.0592  0.8450  0.8009  -0.4799   0.0000   0.4940
   0.100   0.2522   0.00806   0.00362  -0.0590  0.8424  0.8023  -0.4872   0.0000   0.4831
   0.200   0.2633   0.00804   0.00360  -0.0590  0.8404  0.8038  -0.4950   0.0000   0.4730
   0.300   0.2749   0.00802   0.00357  -0.0591  0.8387  0.8055  -0.5031   0.0000   0.4637
   0.400   0.2866   0.00800   0.00354  -0.0592  0.8371  0.8074  -0.5117   0.0000   0.4551
   0.500   0.2967   0.00801   0.00354  -0.0590  0.8342  0.8095  -0.5197   0.0000   0.4474
   0.600   0.3077   0.00798   0.00352  -0.0590  0.8319  0.8106  -0.5284   0.0000   0.4400
   0.700   0.3191   0.00796   0.00350  -0.0590  0.8299  0.8118  -0.5381   0.0000   0.4331
   0.800   0.3308   0.00794   0.00347  -0.0591  0.8282  0.8132  -0.5481   0.0000   0.4267
   0.900   0.3409   0.00793   0.00348  -0.0589  0.8251  0.8147  -0.5575   0.0000   0.4207
   1.000   0.3519   0.00791   0.00347  -0.0588  0.8225  0.8163  -0.5677   0.0000   0.4151
   1.100   0.3634   0.00789   0.00343  -0.0589  0.8205  0.8181  -0.5786   0.0000   0.4099
   1.200   0.3744   0.00788   0.00341  -0.0589  0.8179  0.8198  -0.5895   0.0000   0.4050
   1.300   0.3848   0.00786   0.00341  -0.0587  0.8147  0.8210  -0.6000   0.0000   0.4002
   1.400   0.3960   0.00783   0.00338  -0.0587  0.8121  0.8222  -0.6116   0.0000   0.3957
   1.500   0.4074   0.00781   0.00336  -0.0587  0.8098  0.8235  -0.6254   0.0000   0.3915
   1.600   0.4175   0.00780   0.00337  -0.0585  0.8061  0.8250  -0.6382   0.0000   0.3875
   1.700   0.4286   0.00778   0.00335  -0.0585  0.8031  0.8266  -0.6534   0.0000   0.3837
   1.800   0.4401   0.00776   0.00331  -0.0586  0.8006  0.8282  -0.6690   0.0000   0.3802
   1.900   0.4503   0.00776   0.00331  -0.0584  0.7966  0.8298  -0.6836   0.0000   0.3768
   2.000   0.4612   0.00773   0.00329  -0.0584  0.7933  0.8308  -0.6998   0.0000   0.3734
   2.100   0.4722   0.00771   0.00328  -0.0583  0.7902  0.8320  -0.7168   0.0000   0.3703
   2.200   0.4825   0.00770   0.00329  -0.0581  0.7861  0.8332  -0.7336   0.0000   0.3672
   2.300   0.4936   0.00768   0.00327  -0.0581  0.7826  0.8346  -0.7523   0.0000   0.3643
   2.400   0.5040   0.00767   0.00327  -0.0579  0.7782  0.8361  -0.7708   0.0000   0.3615
   2.500   0.5148   0.00766   0.00325  -0.0579  0.7738  0.8377  -0.7899   0.0000   0.3589
   2.600   0.5255   0.00765   0.00324  -0.0578  0.7693  0.8393  -0.8091   0.0000   0.3564
   2.700   0.5360   0.00763   0.00323  -0.0576  0.7644  0.8404  -0.8306   0.0000   0.3538
   2.800   0.5465   0.00762   0.00323  -0.0575  0.7595  0.8415  -0.8526   0.0000   0.3514
   2.900   0.5569   0.00762   0.00323  -0.0573  0.7542  0.8427  -0.8756   0.0000   0.3491
   3.000   0.5674   0.00761   0.00324  -0.0572  0.7488  0.8441  -0.8989   0.0000   0.3468
   3.100   0.5780   0.00761   0.00323  -0.0571  0.7432  0.8455  -0.9226   0.0000   0.3447
   3.200   0.5883   0.00762   0.00324  -0.0569  0.7370  0.8470  -0.9486   0.0000   0.3426
   3.300   0.5990   0.00763   0.00323  -0.0568  0.7312  0.8486  -0.9750   0.0000   0.3407
   3.400   0.6091   0.00763   0.00324  -0.0566  0.7240  0.8498  -1.0020   0.0000   0.3387
   3.500   0.6192   0.00764   0.00325  -0.0564  0.7167  0.8510  -1.0319   0.0000   0.3367
   3.600   0.6293   0.00765   0.00326  -0.0561  0.7091  0.8522  -1.0676   0.0000   0.3348
   3.700   0.6392   0.00768   0.00327  -0.0559  0.7006  0.8535  -1.1034   0.0000   0.3329
   3.800   0.6491   0.00770   0.00330  -0.0556  0.6911  0.8550  -1.1488   0.0000   0.3311
   3.900   0.6589   0.00774   0.00331  -0.0554  0.6805  0.8565  -1.1982   0.0000   0.3293
   4.000   0.6685   0.00779   0.00333  -0.0551  0.6690  0.8581  -1.2479   0.0000   0.3276
   4.100   0.6777   0.00785   0.00335  -0.0547  0.6562  0.8593  -1.2972   0.0000   0.3258
   4.200   0.6867   0.00791   0.00338  -0.0543  0.6422  0.8605  -1.3465   0.0000   0.3240
   4.300   0.6955   0.00799   0.00342  -0.0538  0.6272  0.8618  -1.3969   0.0000   0.3223
   4.400   0.7039   0.00809   0.00346  -0.0533  0.6112  0.8632  -1.4505   0.0000   0.3205
   4.500   0.7121   0.00821   0.00352  -0.0527  0.5931  0.8647  -1.5039   0.0000   0.3187
   4.600   0.7201   0.00834   0.00358  -0.0521  0.5742  0.8664  -1.5572   0.0000   0.3170
   4.700   0.7278   0.00850   0.00365  -0.0515  0.5547  0.8680  -1.6102   0.0000   0.3153
   4.800   0.7351   0.00865   0.00374  -0.0508  0.5342  0.8692  -1.6626   0.0000   0.3135
   4.900   0.7423   0.00882   0.00383  -0.0501  0.5129  0.8707  -1.7158   0.0000   0.3118
   5.000   0.7493   0.00901   0.00393  -0.0493  0.4906  0.8723  -1.7732   0.0000   0.3101
   5.100   0.7561   0.00922   0.00404  -0.0486  0.4674  0.8740  -1.8307   0.0000   0.3084
   5.200   0.7631   0.00943   0.00415  -0.0479  0.4440  0.8757  -1.8891   0.0000   0.3069
   5.300   0.7700   0.00965   0.00427  -0.0472  0.4209  0.8773  -1.9478   0.0000   0.3053
   5.400   0.7768   0.00986   0.00439  -0.0465  0.3981  0.8787  -2.0066   0.0000   0.3037
   5.500   0.7836   0.01008   0.00452  -0.0458  0.3754  0.8802  -2.0662   0.0000   0.3022
   5.600   0.7906   0.01031   0.00465  -0.0452  0.3526  0.8819  -2.1319   0.0000   0.3008
   5.700   0.7976   0.01055   0.00479  -0.0445  0.3300  0.8837  -2.1989   0.0000   0.2994
   5.800   0.8046   0.01080   0.00493  -0.0440  0.3073  0.8855  -2.2666   0.0000   0.2981
   5.900   0.8114   0.01103   0.00508  -0.0433  0.2855  0.8870  -2.3339   0.0000   0.2967
   6.000   0.8184   0.01127   0.00522  -0.0427  0.2646  0.8887  -2.4026   0.0000   0.2953
   6.100   0.8255   0.01151   0.00537  -0.0421  0.2444  0.8905  -2.4722   0.0000   0.2941
   6.200   0.8328   0.01175   0.00552  -0.0415  0.2252  0.8924  -2.5431   0.0000   0.2929
   6.300   0.8402   0.01198   0.00568  -0.0410  0.2074  0.8943  -2.6152   0.0000   0.2917
   6.400   0.8474   0.01220   0.00584  -0.0404  0.1909  0.8960  -2.6870   0.0000   0.2905
   6.500   0.8547   0.01242   0.00599  -0.0399  0.1757  0.8978  -2.7598   0.0000   0.2894
   6.600   0.8622   0.01264   0.00615  -0.0394  0.1613  0.8998  -2.8338   0.0000   0.2883
   6.700   0.8699   0.01287   0.00632  -0.0389  0.1480  0.9019  -2.9091   0.0000   0.2872
   6.900   0.8845   0.01329   0.00665  -0.0378  0.1237  0.9058  -3.0584   0.0000   0.2850
   7.100   0.8990   0.01372   0.00699  -0.0367  0.1020  0.9104  -3.2092   0.0000   0.2829
   7.200   0.9057   0.01393   0.00716  -0.0360  0.0922  0.9127  -3.2826   0.0000   0.2817
   7.300   0.9125   0.01414   0.00734  -0.0353  0.0829  0.9154  -3.3569   0.0000   0.2806
   7.400   0.9191   0.01437   0.00753  -0.0346  0.0738  0.9182  -3.4303   0.0000   0.2794
   7.500   0.9254   0.01460   0.00773  -0.0339  0.0654  0.9211  -3.5085   0.0000   0.2782
   7.600   0.9319   0.01485   0.00794  -0.0332  0.0573  0.9246  -3.5890   0.0000   0.2771
   7.700   0.9379   0.01511   0.00817  -0.0324  0.0506  0.9282  -3.6672   0.0000   0.2759
   7.800   0.9443   0.01536   0.00841  -0.0317  0.0450  0.9325  -3.7465   0.0000   0.2748
   7.900   0.9506   0.01562   0.00866  -0.0309  0.0405  0.9376  -3.8255   0.0000   0.2737
   8.000   0.9572   0.01586   0.00891  -0.0302  0.0370  0.9439  -3.9065   0.0000   0.2726
   8.100   0.9649   0.01611   0.00918  -0.0298  0.0340  0.9519  -3.9909   0.0000   0.2718
   8.200   0.9739   0.01643   0.00950  -0.0297  0.0316  0.9627  -4.0823   0.0000   0.2713
   8.300   0.9854   0.01669   0.00979  -0.0301  0.0294  0.9819  -4.1865   0.0000   0.2712
   8.400   0.9924   0.01703   0.01011  -0.0297  0.0279  1.0000  -4.2692   0.0000   0.2705
   8.500   1.0007   0.01727   0.01037  -0.0294  0.0265  1.0000  -4.3590   0.0000   0.2698
   8.600   1.0083   0.01754   0.01065  -0.0291  0.0253  1.0000  -4.4489   0.0000   0.2691
   8.700   1.0142   0.01795   0.01104  -0.0285  0.0243  1.0000  -4.5273   0.0000   0.2682
   8.800   1.0223   0.01818   0.01131  -0.0281  0.0234  1.0000  -4.6170   0.0000   0.2676
   8.900   1.0297   0.01845   0.01159  -0.0278  0.0226  1.0000  -4.7054   0.0000   0.2669
   9.000   1.0367   0.01876   0.01191  -0.0273  0.0219  1.0000  -4.7927   0.0000   0.2661
   9.100   1.0420   0.01917   0.01232  -0.0266  0.0212  1.0000  -4.8707   0.0000   0.2652
   9.200   1.0477   0.01956   0.01273  -0.0260  0.0207  1.0000  -4.9458   0.0000   0.2643
   9.300   1.0547   0.01985   0.01306  -0.0255  0.0202  1.0000  -5.0383   0.0000   0.2636
   9.400   1.0613   0.02017   0.01340  -0.0250  0.0196  1.0000  -5.1326   0.0000   0.2628
   9.500   1.0676   0.02050   0.01375  -0.0244  0.0191  1.0000  -5.2276   0.0000   0.2620
   9.600   1.0737   0.02085   0.01411  -0.0239  0.0187  1.0000  -5.3225   0.0000   0.2613
   9.700   1.0789   0.02125   0.01451  -0.0232  0.0183  1.0000  -5.4131   0.0000   0.2604
   9.800   1.0823   0.02180   0.01506  -0.0223  0.0179  1.0000  -5.4888   0.0000   0.2594
   9.900   1.0867   0.02228   0.01557  -0.0215  0.0176  1.0000  -5.5678   0.0000   0.2584
  10.000   1.0932   0.02260   0.01593  -0.0210  0.0173  1.0000  -5.6634   0.0000   0.2577
  10.100   1.0994   0.02295   0.01632  -0.0205  0.0169  1.0000  -5.7575   0.0000   0.2569
  10.200   1.1053   0.02331   0.01671  -0.0199  0.0165  1.0000  -5.8526   0.0000   0.2562
  10.300   1.1111   0.02368   0.01710  -0.0194  0.0161  1.0000  -5.9496   0.0000   0.2555
  10.400   1.1168   0.02405   0.01748  -0.0188  0.0158  1.0000  -6.0481   0.0000   0.2547
  10.500   1.1220   0.02445   0.01790  -0.0182  0.0155  1.0000  -6.1455   0.0000   0.2540
  10.600   1.1264   0.02494   0.01839  -0.0176  0.0152  1.0000  -6.2357   0.0000   0.2532
  10.700   1.1289   0.02560   0.01905  -0.0167  0.0149  1.0000  -6.3079   0.0000   0.2522
  10.800   1.1325   0.02621   0.01969  -0.0159  0.0147  1.0000  -6.3819   0.0000   0.2513
  10.900   1.1382   0.02661   0.02014  -0.0153  0.0145  1.0000  -6.4734   0.0000   0.2506
  11.000   1.1435   0.02705   0.02063  -0.0147  0.0143  1.0000  -6.5620   0.0000   0.2499
  11.100   1.1485   0.02752   0.02115  -0.0141  0.0141  1.0000  -6.6492   0.0000   0.2491
  11.200   1.1534   0.02800   0.02168  -0.0135  0.0139  1.0000  -6.7359   0.0000   0.2484
  11.300   1.1581   0.02850   0.02221  -0.0129  0.0137  1.0000  -6.8229   0.0000   0.2477
  11.400   1.1628   0.02900   0.02276  -0.0122  0.0135  1.0000  -6.9101   0.0000   0.2469
  11.500   1.1674   0.02951   0.02330  -0.0116  0.0133  1.0000  -6.9980   0.0000   0.2462
  11.600   1.1719   0.03003   0.02385  -0.0111  0.0132  1.0000  -7.0869   0.0000   0.2455
  11.700   1.1763   0.03056   0.02441  -0.0105  0.0130  1.0000  -7.1766   0.0000   0.2448
  11.800   1.1805   0.03109   0.02497  -0.0099  0.0128  1.0000  -7.2666   0.0000   0.2442
  11.900   1.1847   0.03165   0.02555  -0.0093  0.0127  1.0000  -7.3564   0.0000   0.2435
  12.000   1.1886   0.03225   0.02617  -0.0087  0.0125  1.0000  -7.4445   0.0000   0.2428
  12.100   1.1923   0.03291   0.02685  -0.0081  0.0124  1.0000  -7.5288   0.0000   0.2421
  12.200   1.1959   0.03370   0.02765  -0.0075  0.0123  1.0000  -7.6052   0.0000   0.2414
  12.300   1.1994   0.03483   0.02881  -0.0068  0.0121  1.0000  -7.6587   0.0000   0.2407
  12.400   1.2023   0.03539   0.02946  -0.0061  0.0120  1.0000  -7.7341   0.0000   0.2399
  12.500   1.2052   0.03600   0.03015  -0.0055  0.0119  1.0000  -7.8068   0.0000   0.2392
  12.600   1.2078   0.03665   0.03088  -0.0048  0.0118  1.0000  -7.8815   0.0000   0.2385
  12.700   1.2102   0.03733   0.03164  -0.0042  0.0116  1.0000  -7.9613   0.0000   0.2378
  12.800   1.2124   0.03805   0.03244  -0.0036  0.0115  1.0000  -8.0395   0.0000   0.2371
  12.900   1.2145   0.03879   0.03325  -0.0029  0.0114  1.0000  -8.1171   0.0000   0.2364
  13.000   1.2163   0.03956   0.03409  -0.0023  0.0112  1.0000  -8.1942   0.0000   0.2358
  13.100   1.2180   0.04034   0.03493  -0.0018  0.0111  1.0000  -8.2715   0.0000   0.2351
  13.200   1.2196   0.04113   0.03579  -0.0012  0.0109  1.0000  -8.3488   0.0000   0.2345
  13.300   1.2209   0.04194   0.03665  -0.0007  0.0108  1.0000  -8.4258   0.0000   0.2338
  13.400   1.2221   0.04276   0.03753  -0.0001  0.0107  1.0000  -8.5025   0.0000   0.2332
  13.500   1.2232   0.04361   0.03843   0.0004  0.0106  1.0000  -8.5782   0.0000   0.2326
  13.600   1.2242   0.04448   0.03936   0.0009  0.0105  1.0000  -8.6523   0.0000   0.2321
  13.700   1.2246   0.04541   0.04034   0.0013  0.0104  1.0000  -8.7212   0.0000   0.2315
  13.800   1.2248   0.04638   0.04136   0.0018  0.0104  1.0000  -8.7876   0.0000   0.2309
  13.900   1.2247   0.04737   0.04241   0.0022  0.0103  1.0000  -8.8530   0.0000   0.2304
  14.000   1.2244   0.04839   0.04348   0.0026  0.0102  1.0000  -8.9166   0.0000   0.2299
  14.100   1.2239   0.04944   0.04459   0.0030  0.0102  1.0000  -8.9780   0.0000   0.2294
  14.200   1.2231   0.05053   0.04573   0.0033  0.0101  1.0000  -9.0374   0.0000   0.2289
  14.300   1.2222   0.05166   0.04691   0.0036  0.0100  1.0000  -9.0945   0.0000   0.2285
  14.400   1.2210   0.05284   0.04815   0.0039  0.0100  1.0000  -9.1483   0.0000   0.2280
  14.500   1.2194   0.05410   0.04945   0.0042  0.0099  1.0000  -9.1968   0.0000   0.2276
  14.600   1.2173   0.05543   0.05084   0.0044  0.0099  1.0000  -9.2382   0.0000   0.2272
  14.700   1.2146   0.05687   0.05234   0.0046  0.0098  1.0000  -9.2705   0.0000   0.2269
  14.800   1.2111   0.05842   0.05396   0.0048  0.0098  1.0000  -9.2917   0.0000   0.2265
  14.900   1.2067   0.06010   0.05570   0.0049  0.0098  1.0000  -9.3017   0.0000   0.2262
  15.000   1.2017   0.06190   0.05758   0.0049  0.0097  1.0000  -9.3013   0.0000   0.2259
  15.100   1.1959   0.06382   0.05959   0.0049  0.0097  1.0000  -9.2921   0.0000   0.2258
  15.200   1.1897   0.06585   0.06170   0.0047  0.0097  1.0000  -9.2758   0.0000   0.2257
  15.300   1.1831   0.06797   0.06391   0.0044  0.0097  1.0000  -9.2544   0.0000   0.2257
  15.400   1.1762   0.07018   0.06620   0.0040  0.0096  1.0000  -9.2292   0.0000   0.2258
  15.600   1.1626   0.07468   0.07087   0.0028  0.0096  1.0000  -9.1801   0.0000   0.2263
  15.700   1.1560   0.07698   0.07325   0.0020  0.0096  1.0000  -9.1583   0.0000   0.2268
  15.800   1.1493   0.07938   0.07573   0.0010  0.0096  1.0000  -9.1321   0.0000   0.2274
  15.900   1.1424   0.08189   0.07832  -0.0000  0.0096  1.0000  -9.1017   0.0000   0.2281
  16.000   1.1353   0.08449   0.08100  -0.0012  0.0096  1.0000  -9.0668   0.0000   0.2288
  16.100   1.1281   0.08719   0.08378  -0.0024  0.0096  1.0000  -9.0276   0.0000   0.2297
  16.200   1.1207   0.08999   0.08665  -0.0038  0.0096  1.0000  -8.9838   0.0000   0.2307
  16.300   1.1133   0.09288   0.08961  -0.0053  0.0096  1.0000  -8.9356   0.0000   0.2319
  16.400   1.1057   0.09585   0.09265  -0.0068  0.0096  1.0000  -8.8828   0.0000   0.2331
  16.700   0.7831   0.09104   0.08852   0.0064  0.0114  1.0000  -6.4279   0.0000   0.2218
  16.800   0.7746   0.09355   0.09109   0.0048  0.0115  1.0000  -6.3473   0.0000   0.2238
  16.900   0.7660   0.09612   0.09372   0.0031  0.0115  1.0000  -6.2620   0.0000   0.2258
  17.000   0.7574   0.09876   0.09642   0.0014  0.0116  1.0000  -6.1713   0.0000   0.2280
  17.100   0.7486   0.10146   0.09917  -0.0004  0.0116  1.0000  -6.0754   0.0000   0.2303
  17.200   0.7399   0.10422   0.10198  -0.0022  0.0117  1.0000  -5.9742   0.0000   0.2327
  17.300   0.7310   0.10705   0.10486  -0.0040  0.0117  1.0000  -5.8673   0.0000   0.2353
  17.400   0.7222   0.10994   0.10779  -0.0059  0.0118  1.0000  -5.7546   0.0000   0.2379
  17.500   0.7133   0.11288   0.11077  -0.0078  0.0119  1.0000  -5.6359   0.0000   0.2407
  17.600   0.7043   0.11588   0.11380  -0.0096  0.0119  1.0000  -5.5106   0.0000   0.2435
  17.700   0.6954   0.11892   0.11687  -0.0115  0.0120  1.0000  -5.3789   0.0000   0.2464


