xflr5 v6.32

 Calculated polar for: finalfoil mod1

 1 1 Reynolds number fixed          Mach number fixed         

 xtrf =   1.000 (top)        1.000 (bottom)
 Mach =   0.000     Re =    35.000 e 6     Ncrit =   9.000

  alpha     CL        CD       CDp       Cm    Top Xtr Bot Xtr   Cpmin    Chinge    XCp    
 ------- -------- --------- --------- -------- ------- ------- -------- --------- ---------
 -15.000  -1.3673   0.01209   0.00850  -0.0560  0.8778  0.0013  -20.7994   0.0000   0.1913
 -14.900  -1.3580   0.01196   0.00836  -0.0559  0.8767  0.0013  -20.5583   0.0000   0.1913
 -14.800  -1.3486   0.01183   0.00823  -0.0558  0.8753  0.0013  -20.3181   0.0000   0.1912
 -14.700  -1.3391   0.01170   0.00810  -0.0557  0.8737  0.0013  -20.0788   0.0000   0.1912
 -14.600  -1.3297   0.01158   0.00797  -0.0556  0.8718  0.0013  -19.8401   0.0000   0.1911
 -14.500  -1.3201   0.01146   0.00784  -0.0555  0.8708  0.0013  -19.6013   0.0000   0.1911
 -14.400  -1.3104   0.01133   0.00771  -0.0554  0.8699  0.0013  -19.3632   0.0000   0.1910
 -14.300  -1.3007   0.01121   0.00759  -0.0554  0.8689  0.0013  -19.1259   0.0000   0.1909
 -14.200  -1.2910   0.01109   0.00746  -0.0553  0.8677  0.0013  -18.8897   0.0000   0.1908
 -14.100  -1.2813   0.01098   0.00734  -0.0552  0.8663  0.0013  -18.6544   0.0000   0.1907
 -14.000  -1.2715   0.01086   0.00722  -0.0552  0.8646  0.0013  -18.4201   0.0000   0.1906
 -13.900  -1.2616   0.01075   0.00711  -0.0551  0.8630  0.0013  -18.1864   0.0000   0.1904
 -13.800  -1.2517   0.01064   0.00699  -0.0550  0.8624  0.0013  -17.9528   0.0000   0.1903
 -13.700  -1.2417   0.01052   0.00688  -0.0550  0.8615  0.0013  -17.7203   0.0000   0.1901
 -13.600  -1.2318   0.01041   0.00676  -0.0550  0.8604  0.0013  -17.4890   0.0000   0.1900
 -13.500  -1.2218   0.01031   0.00665  -0.0549  0.8590  0.0013  -17.2588   0.0000   0.1898
 -13.400  -1.2118   0.01020   0.00654  -0.0549  0.8573  0.0013  -17.0300   0.0000   0.1896
 -13.300  -1.2017   0.01010   0.00644  -0.0548  0.8553  0.0013  -16.8022   0.0000   0.1894
 -13.200  -1.1916   0.01000   0.00633  -0.0548  0.8542  0.0013  -16.5746   0.0000   0.1892
 -13.100  -1.1814   0.00989   0.00622  -0.0548  0.8532  0.0013  -16.3480   0.0000   0.1890
 -13.000  -1.1712   0.00979   0.00612  -0.0548  0.8521  0.0013  -16.1226   0.0000   0.1887
 -12.900  -1.1610   0.00969   0.00602  -0.0547  0.8507  0.0013  -15.8985   0.0000   0.1885
 -12.800  -1.1508   0.00960   0.00592  -0.0547  0.8491  0.0013  -15.6758   0.0000   0.1882
 -12.700  -1.1406   0.00950   0.00582  -0.0547  0.8471  0.0013  -15.4542   0.0000   0.1880
 -12.600  -1.1303   0.00941   0.00572  -0.0547  0.8458  0.0013  -15.2331   0.0000   0.1877
 -12.500  -1.1207   0.00922   0.00553  -0.0546  0.8450  0.0018  -15.0800   0.0000   0.1875
 -12.400  -1.1104   0.00912   0.00543  -0.0546  0.8440  0.0018  -14.8632   0.0000   0.1872
 -12.300  -1.1001   0.00902   0.00532  -0.0545  0.8428  0.0019  -14.6473   0.0000   0.1869
 -12.200  -1.0898   0.00892   0.00522  -0.0545  0.8414  0.0019  -14.4323   0.0000   0.1866
 -12.100  -1.0795   0.00882   0.00512  -0.0545  0.8397  0.0020  -14.2182   0.0000   0.1863
 -12.000  -1.0692   0.00872   0.00503  -0.0545  0.8377  0.0020  -14.0047   0.0000   0.1859
 -11.900  -1.0587   0.00863   0.00493  -0.0545  0.8369  0.0021  -13.7914   0.0000   0.1856
 -11.800  -1.0483   0.00853   0.00484  -0.0545  0.8361  0.0021  -13.5789   0.0000   0.1852
 -11.700  -1.0377   0.00844   0.00475  -0.0545  0.8350  0.0022  -13.3673   0.0000   0.1848
 -11.600  -1.0272   0.00836   0.00466  -0.0546  0.8338  0.0022  -13.1568   0.0000   0.1843
 -11.500  -1.0167   0.00827   0.00458  -0.0546  0.8323  0.0022  -12.9477   0.0000   0.1839
 -11.400  -1.0061   0.00820   0.00450  -0.0546  0.8305  0.0022  -12.7398   0.0000   0.1834
 -11.300  -0.9955   0.00812   0.00442  -0.0546  0.8286  0.0023  -12.5329   0.0000   0.1830
 -11.200  -0.9848   0.00804   0.00434  -0.0547  0.8278  0.0023  -12.3267   0.0000   0.1825
 -11.100  -0.9741   0.00796   0.00427  -0.0547  0.8269  0.0023  -12.1218   0.0000   0.1819
 -11.000  -0.9633   0.00789   0.00419  -0.0547  0.8258  0.0023  -11.9184   0.0000   0.1814
 -10.900  -0.9526   0.00782   0.00412  -0.0548  0.8244  0.0023  -11.7166   0.0000   0.1808
 -10.800  -0.9419   0.00775   0.00405  -0.0548  0.8229  0.0023  -11.5163   0.0000   0.1802
 -10.700  -0.9312   0.00768   0.00398  -0.0548  0.8210  0.0023  -11.3175   0.0000   0.1797
 -10.600  -0.9204   0.00761   0.00391  -0.0549  0.8193  0.0024  -11.1197   0.0000   0.1790
 -10.500  -0.9095   0.00754   0.00384  -0.0549  0.8186  0.0024  -10.9229   0.0000   0.1784
 -10.400  -0.8987   0.00747   0.00377  -0.0550  0.8176  0.0024  -10.7276   0.0000   0.1777
 -10.300  -0.8878   0.00740   0.00370  -0.0550  0.8162  0.0024  -10.5340   0.0000   0.1770
 -10.200  -0.8770   0.00734   0.00364  -0.0551  0.8145  0.0024  -10.3421   0.0000   0.1763
 -10.100  -0.8662   0.00728   0.00357  -0.0551  0.8123  0.0024  -10.1519   0.0000   0.1756
 -10.000  -0.8554   0.00722   0.00351  -0.0552  0.8101  0.0024  -9.9629   0.0000   0.1748
  -9.900  -0.8444   0.00715   0.00345  -0.0552  0.8091  0.0024  -9.7747   0.0000   0.1740
  -9.800  -0.8335   0.00709   0.00338  -0.0553  0.8078  0.0024  -9.5882   0.0000   0.1732
  -9.700  -0.8226   0.00703   0.00332  -0.0554  0.8061  0.0024  -9.4035   0.0000   0.1723
  -9.600  -0.8117   0.00697   0.00326  -0.0554  0.8041  0.0024  -9.2205   0.0000   0.1715
  -9.500  -0.8008   0.00691   0.00320  -0.0555  0.8015  0.0024  -9.0390   0.0000   0.1706
  -9.400  -0.7898   0.00685   0.00314  -0.0555  0.8002  0.0024  -8.8583   0.0000   0.1696
  -9.300  -0.7788   0.00680   0.00308  -0.0556  0.7990  0.0024  -8.6791   0.0000   0.1686
  -9.200  -0.7678   0.00674   0.00303  -0.0557  0.7973  0.0024  -8.5018   0.0000   0.1676
  -9.100  -0.7569   0.00669   0.00297  -0.0557  0.7950  0.0024  -8.3263   0.0000   0.1666
  -9.000  -0.7460   0.00663   0.00292  -0.0558  0.7922  0.0024  -8.1525   0.0000   0.1655
  -8.900  -0.7349   0.00658   0.00286  -0.0558  0.7906  0.0024  -7.9794   0.0000   0.1644
  -8.800  -0.7239   0.00652   0.00281  -0.0559  0.7892  0.0024  -7.8079   0.0000   0.1632
  -8.700  -0.7129   0.00647   0.00275  -0.0560  0.7870  0.0024  -7.6383   0.0000   0.1620
  -8.600  -0.7019   0.00643   0.00270  -0.0560  0.7841  0.0024  -7.4708   0.0000   0.1608
  -8.500  -0.6909   0.00638   0.00265  -0.0561  0.7814  0.0024  -7.3043   0.0000   0.1595
  -8.400  -0.6798   0.00632   0.00260  -0.0562  0.7799  0.0024  -7.1389   0.0000   0.1582
  -8.300  -0.6688   0.00628   0.00255  -0.0562  0.7772  0.0024  -6.9756   0.0000   0.1568
  -8.200  -0.6578   0.00623   0.00250  -0.0563  0.7736  0.0024  -6.8146   0.0000   0.1554
  -8.100  -0.6467   0.00619   0.00245  -0.0564  0.7711  0.0024  -6.6542   0.0000   0.1539
  -8.000  -0.6356   0.00614   0.00240  -0.0564  0.7690  0.0024  -6.4953   0.0000   0.1523
  -7.900  -0.6246   0.00610   0.00236  -0.0565  0.7660  0.0024  -6.3386   0.0000   0.1507
  -7.800  -0.6137   0.00604   0.00230  -0.0565  0.7623  0.0027  -6.1897   0.0000   0.1491
  -7.700  -0.6026   0.00599   0.00225  -0.0566  0.7607  0.0029  -6.0374   0.0000   0.1474
  -7.600  -0.5915   0.00594   0.00220  -0.0567  0.7581  0.0031  -5.8864   0.0000   0.1456
  -7.500  -0.5806   0.00590   0.00215  -0.0567  0.7542  0.0033  -5.7373   0.0000   0.1438
  -7.400  -0.5696   0.00585   0.00210  -0.0568  0.7513  0.0034  -5.5887   0.0000   0.1418
  -7.300  -0.5585   0.00580   0.00205  -0.0568  0.7489  0.0035  -5.4412   0.0000   0.1398
  -7.200  -0.5474   0.00576   0.00201  -0.0569  0.7456  0.0036  -5.2956   0.0000   0.1377
  -7.100  -0.5364   0.00572   0.00197  -0.0569  0.7419  0.0037  -5.1513   0.0000   0.1354
  -7.000  -0.5251   0.00568   0.00193  -0.0570  0.7401  0.0037  -5.0078   0.0000   0.1330
  -6.900  -0.5140   0.00565   0.00189  -0.0571  0.7371  0.0038  -4.8664   0.0000   0.1306
  -6.800  -0.5029   0.00562   0.00185  -0.0572  0.7330  0.0038  -4.7271   0.0000   0.1281
  -6.700  -0.4917   0.00558   0.00181  -0.0572  0.7306  0.0038  -4.5885   0.0000   0.1253
  -6.600  -0.4806   0.00555   0.00178  -0.0573  0.7276  0.0038  -4.4518   0.0000   0.1225
  -6.500  -0.4695   0.00552   0.00175  -0.0574  0.7230  0.0039  -4.3175   0.0000   0.1196
  -6.400  -0.4583   0.00549   0.00171  -0.0575  0.7200  0.0039  -4.1840   0.0000   0.1165
  -6.300  -0.4471   0.00546   0.00168  -0.0575  0.7166  0.0039  -4.0523   0.0000   0.1132
  -6.200  -0.4361   0.00543   0.00164  -0.0576  0.7120  0.0039  -3.9228   0.0000   0.1098
  -6.100  -0.4248   0.00540   0.00161  -0.0577  0.7093  0.0039  -3.7940   0.0000   0.1062
  -6.000  -0.4137   0.00537   0.00158  -0.0577  0.7054  0.0039  -3.6675   0.0000   0.1023
  -5.900  -0.4026   0.00535   0.00155  -0.0578  0.7004  0.0039  -3.5429   0.0000   0.0984
  -5.800  -0.3914   0.00532   0.00152  -0.0579  0.6974  0.0039  -3.4191   0.0000   0.0940
  -5.700  -0.3803   0.00530   0.00149  -0.0579  0.6922  0.0039  -3.3075   0.0000   0.0896
  -5.600  -0.3691   0.00528   0.00146  -0.0580  0.6881  0.0039  -3.1984   0.0000   0.0848
  -5.500  -0.3581   0.00525   0.00143  -0.0581  0.6832  0.0042  -3.0945   0.0000   0.0798
  -5.400  -0.3470   0.00523   0.00139  -0.0581  0.6780  0.0046  -2.9904   0.0000   0.0744
  -5.300  -0.3359   0.00521   0.00137  -0.0582  0.6726  0.0049  -2.8870   0.0000   0.0688
  -5.200  -0.3249   0.00518   0.00133  -0.0582  0.6665  0.0052  -2.7847   0.0000   0.0628
  -5.100  -0.3140   0.00517   0.00131  -0.0582  0.6596  0.0054  -2.6840   0.0000   0.0564
  -5.000  -0.3029   0.00515   0.00128  -0.0583  0.6535  0.0056  -2.5837   0.0000   0.0494
  -4.800  -0.2810   0.00512   0.00123  -0.0583  0.6398  0.0070  -2.3892   0.0000   0.0341
  -4.700  -0.2700   0.00510   0.00120  -0.0583  0.6329  0.0076  -2.2935   0.0000   0.0255
  -4.600  -0.2591   0.00510   0.00118  -0.0584  0.6250  0.0078  -2.1993   0.0000   0.0162
  -4.500  -0.2480   0.00508   0.00116  -0.0584  0.6185  0.0086  -2.1063   0.0000   0.0059
  -4.400  -0.2371   0.00507   0.00113  -0.0584  0.6105  0.0095  -2.0153   0.0000  -0.0051
  -4.300  -0.2263   0.00507   0.00111  -0.0584  0.6010  0.0101  -1.9256   0.0000  -0.0170
  -4.200  -0.2155   0.00506   0.00109  -0.0584  0.5924  0.0119  -1.8377   0.0000  -0.0301
  -4.100  -0.2044   0.00504   0.00107  -0.0585  0.5854  0.0127  -1.7499   0.0000  -0.0451
  -4.000  -0.1936   0.00504   0.00105  -0.0585  0.5762  0.0141  -1.6641   0.0000  -0.0614
  -3.900  -0.1827   0.00504   0.00103  -0.0585  0.5666  0.0154  -1.5800   0.0000  -0.0794
  -3.800  -0.1719   0.00504   0.00102  -0.0585  0.5574  0.0170  -1.4970   0.0000  -0.0999
  -3.700  -0.1610   0.00502   0.00099  -0.0585  0.5495  0.0188  -1.4170   0.0000  -0.1234
  -3.600  -0.1501   0.00501   0.00097  -0.0585  0.5410  0.0213  -1.3456   0.0000  -0.1502
  -3.500  -0.1392   0.00501   0.00096  -0.0585  0.5319  0.0237  -1.2753   0.0000  -0.1810
  -3.400  -0.1283   0.00500   0.00094  -0.0585  0.5241  0.0261  -1.2061   0.0000  -0.2171
  -3.300  -0.1173   0.00499   0.00092  -0.0585  0.5179  0.0289  -1.1373   0.0000  -0.2611
  -3.200  -0.1064   0.00498   0.00091  -0.0585  0.5097  0.0322  -1.0701   0.0000  -0.3130
  -3.100  -0.0953   0.00497   0.00089  -0.0586  0.5043  0.0346  -1.0032   0.0000  -0.3784
  -2.900  -0.0733   0.00494   0.00086  -0.0587  0.4923  0.0426  -0.8733   0.0000  -0.5666
  -2.800  -0.0622   0.00493   0.00085  -0.0587  0.4862  0.0453  -0.8096   0.0000  -0.7123
  -2.700  -0.0510   0.00491   0.00083  -0.0588  0.4823  0.0489  -0.7470   0.0000  -0.9226
  -2.600  -0.0401   0.00490   0.00083  -0.0588  0.4752  0.0530  -0.6907   0.0000  -1.2429
  -2.500  -0.0289   0.00489   0.00081  -0.0589  0.4712  0.0572  -0.6442   0.0000  -1.8210
  -2.400  -0.0179   0.00489   0.00080  -0.0589  0.4640  0.0603  -0.6056   0.0000  -3.0870
  -2.300  -0.0068   0.00487   0.00079  -0.0589  0.4598  0.0656  -0.5671   0.0000  -8.5670
  -2.200   0.0041   0.00486   0.00078  -0.0589  0.4517  0.0722  -0.5353   0.0000  14.9930
  -2.100   0.0149   0.00483   0.00077  -0.0589  0.4457  0.0835  -0.5067   0.0000   4.2685
  -2.000   0.0257   0.00481   0.00076  -0.0589  0.4376  0.0928  -0.4833   0.0000   2.5752
  -1.900   0.0365   0.00481   0.00075  -0.0589  0.4283  0.0993  -0.4600   0.0000   1.8851
  -1.800   0.0473   0.00482   0.00075  -0.0589  0.4196  0.1053  -0.4368   0.0000   1.5099
  -1.700   0.0581   0.00481   0.00074  -0.0589  0.4114  0.1136  -0.4138   0.0000   1.2739
  -1.500   0.0798   0.00480   0.00073  -0.0589  0.3935  0.1293  -0.3908   0.0000   0.9951
  -1.300   0.1016   0.00479   0.00072  -0.0590  0.3789  0.1458  -0.3998   0.0000   0.8346
  -1.200   0.1123   0.00479   0.00072  -0.0589  0.3698  0.1548  -0.4055   0.0000   0.7779
  -1.000   0.1340   0.00482   0.00073  -0.0589  0.3507  0.1668  -0.4176   0.0000   0.6919
  -0.800   0.1560   0.00485   0.00074  -0.0590  0.3343  0.1763  -0.4275   0.0000   0.6294
  -0.700   0.1668   0.00486   0.00074  -0.0590  0.3255  0.1822  -0.4337   0.0000   0.6045
  -0.600   0.1778   0.00487   0.00074  -0.0590  0.3184  0.1870  -0.4396   0.0000   0.5824
  -0.500   0.1890   0.00487   0.00074  -0.0591  0.3143  0.1920  -0.4461   0.0000   0.5629
  -0.400   0.2000   0.00486   0.00074  -0.0591  0.3092  0.2019  -0.4547   0.0000   0.5456
  -0.300   0.2110   0.00484   0.00074  -0.0592  0.3049  0.2164  -0.4615   0.0000   0.5302
  -0.200   0.2218   0.00482   0.00074  -0.0592  0.3006  0.2312  -0.4674   0.0000   0.5163
  -0.100   0.2327   0.00481   0.00074  -0.0592  0.2936  0.2417  -0.4741   0.0000   0.5037
   0.000   0.2435   0.00483   0.00075  -0.0592  0.2848  0.2501  -0.4809   0.0000   0.4922
   0.100   0.2545   0.00485   0.00076  -0.0592  0.2773  0.2542  -0.4878   0.0000   0.4817
   0.300   0.2764   0.00487   0.00077  -0.0593  0.2625  0.2692  -0.5050   0.0000   0.4631
   0.400   0.2872   0.00488   0.00079  -0.0593  0.2555  0.2784  -0.5118   0.0000   0.4549
   0.500   0.2982   0.00487   0.00079  -0.0593  0.2503  0.2906  -0.5206   0.0000   0.4473
   0.600   0.3089   0.00487   0.00079  -0.0593  0.2422  0.3037  -0.5289   0.0000   0.4402
   0.800   0.3305   0.00488   0.00081  -0.0593  0.2289  0.3277  -0.5474   0.0000   0.4275
   1.000   0.3523   0.00489   0.00083  -0.0593  0.2171  0.3495  -0.5675   0.0000   0.4163
   1.100   0.3633   0.00488   0.00084  -0.0594  0.2130  0.3613  -0.5782   0.0000   0.4112
   1.200   0.3741   0.00489   0.00085  -0.0594  0.2058  0.3733  -0.5888   0.0000   0.4064
   1.300   0.3848   0.00490   0.00087  -0.0594  0.1982  0.3856  -0.5994   0.0000   0.4018
   1.400   0.3955   0.00492   0.00088  -0.0593  0.1896  0.3968  -0.6100   0.0000   0.3975
   1.500   0.4064   0.00493   0.00090  -0.0594  0.1826  0.4067  -0.6223   0.0000   0.3934
   1.600   0.4173   0.00496   0.00091  -0.0594  0.1759  0.4128  -0.6368   0.0000   0.3896
   1.800   0.4396   0.00499   0.00094  -0.0595  0.1686  0.4217  -0.6671   0.0000   0.3825
   2.000   0.4619   0.00503   0.00097  -0.0596  0.1615  0.4299  -0.6980   0.0000   0.3761
   2.100   0.4730   0.00505   0.00099  -0.0597  0.1578  0.4347  -0.7153   0.0000   0.3731
   2.200   0.4839   0.00507   0.00100  -0.0597  0.1516  0.4445  -0.7330   0.0000   0.3702
   2.300   0.4945   0.00509   0.00103  -0.0597  0.1441  0.4558  -0.7516   0.0000   0.3674
   2.400   0.5051   0.00512   0.00105  -0.0596  0.1350  0.4683  -0.7701   0.0000   0.3647
   2.500   0.5157   0.00514   0.00107  -0.0596  0.1265  0.4810  -0.7887   0.0000   0.3621
   2.600   0.5263   0.00516   0.00110  -0.0596  0.1193  0.4947  -0.8079   0.0000   0.3597
   2.700   0.5369   0.00518   0.00112  -0.0596  0.1138  0.5093  -0.8307   0.0000   0.3573
   2.800   0.5477   0.00519   0.00114  -0.0595  0.1087  0.5226  -0.8539   0.0000   0.3550
   2.900   0.5584   0.00521   0.00117  -0.0595  0.1025  0.5353  -0.8770   0.0000   0.3528
   3.000   0.5690   0.00523   0.00119  -0.0595  0.0964  0.5474  -0.9003   0.0000   0.3507
   3.100   0.5796   0.00526   0.00122  -0.0595  0.0895  0.5595  -0.9235   0.0000   0.3487
   3.200   0.5904   0.00528   0.00125  -0.0595  0.0844  0.5710  -0.9493   0.0000   0.3467
   3.300   0.6013   0.00530   0.00128  -0.0595  0.0813  0.5804  -0.9759   0.0000   0.3448
   3.400   0.6122   0.00532   0.00130  -0.0595  0.0779  0.5884  -1.0039   0.0000   0.3430
   3.500   0.6229   0.00536   0.00133  -0.0595  0.0724  0.5973  -1.0399   0.0000   0.3413
   3.600   0.6337   0.00540   0.00136  -0.0595  0.0677  0.6027  -1.0766   0.0000   0.3395
   3.700   0.6446   0.00543   0.00139  -0.0595  0.0638  0.6091  -1.1138   0.0000   0.3379
   3.800   0.6555   0.00548   0.00143  -0.0595  0.0594  0.6129  -1.1653   0.0000   0.3363
   3.900   0.6663   0.00552   0.00146  -0.0595  0.0553  0.6188  -1.2172   0.0000   0.3348
   4.000   0.6772   0.00555   0.00149  -0.0596  0.0530  0.6225  -1.2702   0.0000   0.3333
   4.100   0.6882   0.00559   0.00152  -0.0596  0.0502  0.6269  -1.3244   0.0000   0.3318
   4.200   0.6991   0.00562   0.00155  -0.0596  0.0480  0.6324  -1.3837   0.0000   0.3304
   4.300   0.7100   0.00566   0.00159  -0.0597  0.0450  0.6364  -1.4438   0.0000   0.3291
   4.400   0.7207   0.00571   0.00162  -0.0596  0.0407  0.6429  -1.5037   0.0000   0.3277
   4.500   0.7314   0.00577   0.00167  -0.0596  0.0364  0.6472  -1.5644   0.0000   0.3264
   4.600   0.7420   0.00582   0.00171  -0.0596  0.0322  0.6542  -1.6255   0.0000   0.3251
   4.700   0.7528   0.00587   0.00176  -0.0596  0.0294  0.6576  -1.6879   0.0000   0.3238
   4.900   0.7744   0.00595   0.00183  -0.0596  0.0246  0.6681  -1.8211   0.0000   0.3215
   5.000   0.7852   0.00599   0.00187  -0.0596  0.0234  0.6731  -1.8957   0.0000   0.3203
   5.100   0.7960   0.00604   0.00192  -0.0596  0.0210  0.6781  -1.9747   0.0000   0.3192
   5.200   0.8069   0.00608   0.00196  -0.0596  0.0200  0.6803  -2.0559   0.0000   0.3181
   5.300   0.8176   0.00613   0.00200  -0.0596  0.0182  0.6853  -2.1371   0.0000   0.3171
   5.400   0.8285   0.00617   0.00204  -0.0597  0.0174  0.6889  -2.2204   0.0000   0.3160
   5.500   0.8393   0.00623   0.00208  -0.0597  0.0159  0.6909  -2.3038   0.0000   0.3150
   5.600   0.8501   0.00627   0.00213  -0.0597  0.0145  0.6935  -2.3888   0.0000   0.3140
   5.700   0.8609   0.00632   0.00217  -0.0597  0.0136  0.6970  -2.4745   0.0000   0.3130
   5.800   0.8717   0.00637   0.00222  -0.0597  0.0124  0.6996  -2.5613   0.0000   0.3121
   5.900   0.8826   0.00642   0.00226  -0.0597  0.0120  0.7014  -2.6499   0.0000   0.3112
   6.000   0.8935   0.00647   0.00230  -0.0597  0.0115  0.7025  -2.7393   0.0000   0.3103
   6.100   0.9041   0.00653   0.00235  -0.0597  0.0104  0.7053  -2.8287   0.0000   0.3094
   6.200   0.9149   0.00657   0.00240  -0.0597  0.0096  0.7081  -2.9198   0.0000   0.3085
   6.300   0.9257   0.00662   0.00244  -0.0597  0.0093  0.7103  -3.0123   0.0000   0.3077
   6.400   0.9365   0.00667   0.00249  -0.0597  0.0089  0.7119  -3.1056   0.0000   0.3068
   6.500   0.9472   0.00673   0.00254  -0.0597  0.0085  0.7130  -3.1996   0.0000   0.3060
   6.600   0.9580   0.00678   0.00259  -0.0598  0.0080  0.7136  -3.2949   0.0000   0.3052
   6.700   0.9688   0.00683   0.00263  -0.0598  0.0075  0.7161  -3.3913   0.0000   0.3044
   6.800   0.9796   0.00688   0.00268  -0.0598  0.0074  0.7185  -3.4889   0.0000   0.3036
   6.900   0.9903   0.00692   0.00272  -0.0598  0.0074  0.7205  -3.5950   0.0000   0.3028
   7.000   1.0011   0.00697   0.00277  -0.0598  0.0073  0.7221  -3.7039   0.0000   0.3021
   7.100   1.0118   0.00703   0.00282  -0.0598  0.0071  0.7234  -3.8139   0.0000   0.3014
   7.200   1.0225   0.00708   0.00287  -0.0598  0.0068  0.7243  -3.9247   0.0000   0.3006
   7.300   1.0331   0.00715   0.00293  -0.0598  0.0065  0.7258  -4.0362   0.0000   0.2999
   7.400   1.0436   0.00720   0.00299  -0.0598  0.0062  0.7284  -4.1489   0.0000   0.2992
   7.500   1.0542   0.00726   0.00304  -0.0597  0.0058  0.7305  -4.2629   0.0000   0.2984
   7.600   1.0649   0.00731   0.00309  -0.0597  0.0055  0.7323  -4.3784   0.0000   0.2977
   7.700   1.0755   0.00737   0.00314  -0.0597  0.0055  0.7336  -4.4955   0.0000   0.2971
   7.800   1.0862   0.00742   0.00320  -0.0597  0.0055  0.7345  -4.6138   0.0000   0.2964
   7.900   1.0968   0.00748   0.00325  -0.0597  0.0054  0.7351  -4.7332   0.0000   0.2957
   8.000   1.1073   0.00754   0.00331  -0.0597  0.0053  0.7358  -4.8536   0.0000   0.2951
   8.100   1.1178   0.00761   0.00337  -0.0597  0.0051  0.7378  -4.9743   0.0000   0.2944
   8.200   1.1281   0.00768   0.00344  -0.0596  0.0048  0.7397  -5.0954   0.0000   0.2937
   8.300   1.1385   0.00775   0.00350  -0.0595  0.0045  0.7413  -5.2176   0.0000   0.2931
   8.400   1.1489   0.00782   0.00357  -0.0595  0.0041  0.7426  -5.3415   0.0000   0.2924
   8.500   1.1593   0.00788   0.00363  -0.0594  0.0039  0.7438  -5.4667   0.0000   0.2918
   8.600   1.1698   0.00794   0.00369  -0.0594  0.0039  0.7447  -5.5936   0.0000   0.2912
   8.700   1.1802   0.00801   0.00375  -0.0594  0.0039  0.7454  -5.7218   0.0000   0.2906
   8.800   1.1906   0.00807   0.00381  -0.0593  0.0038  0.7460  -5.8510   0.0000   0.2900
   8.900   1.2010   0.00814   0.00387  -0.0593  0.0038  0.7467  -5.9898   0.0000   0.2894
   9.000   1.2113   0.00821   0.00394  -0.0592  0.0037  0.7486  -6.1312   0.0000   0.2888
   9.100   1.2215   0.00828   0.00401  -0.0591  0.0036  0.7504  -6.2732   0.0000   0.2882
   9.200   1.2316   0.00836   0.00409  -0.0591  0.0034  0.7518  -6.4159   0.0000   0.2875
   9.300   1.2417   0.00844   0.00417  -0.0590  0.0033  0.7531  -6.5596   0.0000   0.2869
   9.400   1.2518   0.00852   0.00424  -0.0589  0.0031  0.7541  -6.7048   0.0000   0.2863
   9.500   1.2619   0.00860   0.00432  -0.0588  0.0030  0.7550  -6.8515   0.0000   0.2858
   9.600   1.2721   0.00868   0.00439  -0.0587  0.0028  0.7557  -6.9994   0.0000   0.2852
   9.700   1.2822   0.00876   0.00447  -0.0586  0.0027  0.7562  -7.1484   0.0000   0.2846
   9.800   1.2923   0.00883   0.00454  -0.0585  0.0026  0.7566  -7.2984   0.0000   0.2840
   9.900   1.3024   0.00891   0.00461  -0.0584  0.0025  0.7569  -7.4506   0.0000   0.2835
  10.000   1.3125   0.00898   0.00469  -0.0583  0.0025  0.7578  -7.6044   0.0000   0.2829
  10.100   1.3225   0.00906   0.00476  -0.0582  0.0025  0.7593  -7.7592   0.0000   0.2824
  10.200   1.3325   0.00913   0.00483  -0.0581  0.0025  0.7608  -7.9151   0.0000   0.2818
  10.300   1.3425   0.00921   0.00491  -0.0580  0.0025  0.7620  -8.0722   0.0000   0.2813
  10.400   1.3525   0.00928   0.00498  -0.0579  0.0025  0.7632  -8.2303   0.0000   0.2807
  10.500   1.3624   0.00936   0.00506  -0.0578  0.0025  0.7642  -8.3896   0.0000   0.2802
  10.600   1.3723   0.00944   0.00514  -0.0577  0.0025  0.7651  -8.5500   0.0000   0.2796
  10.700   1.3822   0.00952   0.00522  -0.0576  0.0025  0.7658  -8.7115   0.0000   0.2791
  10.800   1.3920   0.00960   0.00530  -0.0574  0.0025  0.7664  -8.8741   0.0000   0.2785
  10.900   1.4018   0.00968   0.00538  -0.0573  0.0025  0.7669  -9.0377   0.0000   0.2780
  11.000   1.4116   0.00977   0.00546  -0.0572  0.0025  0.7673  -9.2024   0.0000   0.2775
  11.100   1.4213   0.00985   0.00554  -0.0570  0.0025  0.7675  -9.3681   0.0000   0.2769
  11.200   1.4310   0.00994   0.00563  -0.0569  0.0025  0.7682  -9.5347   0.0000   0.2764
  11.300   1.4406   0.01002   0.00571  -0.0567  0.0025  0.7695  -9.7023   0.0000   0.2759
  11.400   1.4502   0.01011   0.00580  -0.0566  0.0025  0.7708  -9.8707   0.0000   0.2753
  11.500   1.4597   0.01020   0.00588  -0.0564  0.0025  0.7720  -10.0399   0.0000   0.2748
  11.600   1.4692   0.01029   0.00597  -0.0562  0.0025  0.7730  -10.2101   0.0000   0.2742
  11.700   1.4786   0.01038   0.00607  -0.0560  0.0024  0.7740  -10.3811   0.0000   0.2737
  11.800   1.4880   0.01047   0.00616  -0.0558  0.0024  0.7749  -10.5556   0.0000   0.2732
  11.900   1.4973   0.01057   0.00625  -0.0556  0.0024  0.7756  -10.7396   0.0000   0.2726
  12.000   1.5066   0.01066   0.00635  -0.0554  0.0024  0.7763  -10.9244   0.0000   0.2721
  12.100   1.5158   0.01077   0.00645  -0.0552  0.0023  0.7768  -11.1098   0.0000   0.2716
  12.200   1.5248   0.01087   0.00656  -0.0549  0.0023  0.7773  -11.2957   0.0000   0.2710
  12.300   1.5338   0.01098   0.00666  -0.0546  0.0022  0.7776  -11.4820   0.0000   0.2705
  12.400   1.5427   0.01110   0.00678  -0.0544  0.0022  0.7779  -11.6685   0.0000   0.2699
  12.500   1.5514   0.01121   0.00689  -0.0541  0.0021  0.7781  -11.8554   0.0000   0.2693
  12.600   1.5599   0.01133   0.00701  -0.0537  0.0020  0.7789  -12.0411   0.0000   0.2688
  12.700   1.5677   0.01144   0.00712  -0.0532  0.0020  0.7801  -12.2210   0.0000   0.2681
  12.800   1.5754   0.01155   0.00723  -0.0527  0.0019  0.7815  -12.4012   0.0000   0.2674
  12.900   1.5832   0.01166   0.00734  -0.0522  0.0019  0.7827  -12.5844   0.0000   0.2668
  13.000   1.5911   0.01178   0.00746  -0.0517  0.0018  0.7837  -12.7692   0.0000   0.2661
  13.100   1.5990   0.01190   0.00758  -0.0512  0.0017  0.7846  -12.9550   0.0000   0.2655
  13.200   1.6068   0.01202   0.00770  -0.0508  0.0017  0.7855  -13.1414   0.0000   0.2649
  13.300   1.6145   0.01214   0.00783  -0.0503  0.0016  0.7862  -13.3284   0.0000   0.2642
  13.400   1.6222   0.01226   0.00795  -0.0498  0.0015  0.7869  -13.5158   0.0000   0.2636
  13.500   1.6298   0.01239   0.00808  -0.0493  0.0015  0.7874  -13.7035   0.0000   0.2630
  13.600   1.6374   0.01252   0.00821  -0.0488  0.0015  0.7878  -13.8925   0.0000   0.2624
  13.700   1.6450   0.01264   0.00833  -0.0483  0.0015  0.7882  -14.0832   0.0000   0.2618
  13.800   1.6525   0.01277   0.00846  -0.0478  0.0015  0.7885  -14.2744   0.0000   0.2611
  13.900   1.6600   0.01289   0.00859  -0.0473  0.0015  0.7887  -14.4661   0.0000   0.2605
  14.000   1.6674   0.01303   0.00873  -0.0468  0.0015  0.7896  -14.6582   0.0000   0.2599
  14.100   1.6747   0.01316   0.00886  -0.0463  0.0015  0.7908  -14.8507   0.0000   0.2593
  14.200   1.6820   0.01329   0.00900  -0.0457  0.0015  0.7921  -15.0437   0.0000   0.2587
  14.300   1.6892   0.01343   0.00914  -0.0452  0.0015  0.7932  -15.2370   0.0000   0.2581
  14.400   1.6964   0.01357   0.00929  -0.0447  0.0015  0.7942  -15.4310   0.0000   0.2574
  14.500   1.7034   0.01371   0.00943  -0.0441  0.0015  0.7951  -15.6253   0.0000   0.2568
  14.600   1.7105   0.01386   0.00958  -0.0436  0.0015  0.7960  -15.8200   0.0000   0.2562
  14.700   1.7174   0.01401   0.00974  -0.0431  0.0015  0.7968  -16.0153   0.0000   0.2556
  14.800   1.7244   0.01416   0.00990  -0.0425  0.0015  0.7974  -16.2112   0.0000   0.2550
  14.900   1.7312   0.01432   0.01006  -0.0420  0.0015  0.7980  -16.4069   0.0000   0.2544
  15.000   1.7380   0.01448   0.01022  -0.0414  0.0015  0.7985  -16.6037   0.0000   0.2538
  15.100   1.7447   0.01465   0.01039  -0.0409  0.0014  0.7989  -16.8006   0.0000   0.2532
  15.300   1.7580   0.01498   0.01073  -0.0397  0.0014  0.8007  -17.1948   0.0000   0.2520
  15.400   1.7645   0.01516   0.01091  -0.0392  0.0014  0.8022  -17.3927   0.0000   0.2514
  15.500   1.7710   0.01533   0.01110  -0.0386  0.0014  0.8036  -17.5906   0.0000   0.2508
  15.600   1.7774   0.01552   0.01128  -0.0380  0.0014  0.8047  -17.7890   0.0000   0.2502
  15.700   1.7837   0.01570   0.01148  -0.0375  0.0014  0.8057  -17.9869   0.0000   0.2496
  15.800   1.7899   0.01589   0.01167  -0.0369  0.0014  0.8067  -18.1847   0.0000   0.2490
  15.900   1.7962   0.01609   0.01187  -0.0363  0.0014  0.8075  -18.3839   0.0000   0.2484
  16.000   1.8023   0.01629   0.01208  -0.0357  0.0014  0.8082  -18.5825   0.0000   0.2478
  16.100   1.8084   0.01650   0.01229  -0.0351  0.0014  0.8088  -18.7823   0.0000   0.2472
  16.200   1.8143   0.01671   0.01251  -0.0345  0.0014  0.8092  -18.9804   0.0000   0.2466
  16.400   1.8260   0.01714   0.01296  -0.0333  0.0014  0.8119  -19.3773   0.0000   0.2454
  16.500   1.8316   0.01737   0.01319  -0.0327  0.0014  0.8135  -19.5750   0.0000   0.2448
  16.600   1.8374   0.01760   0.01343  -0.0321  0.0014  0.8149  -19.7744   0.0000   0.2442
  16.700   1.8428   0.01784   0.01368  -0.0315  0.0014  0.8161  -19.9719   0.0000   0.2436
  16.800   1.8483   0.01809   0.01393  -0.0309  0.0014  0.8173  -20.1693   0.0000   0.2430
  16.900   1.8535   0.01834   0.01419  -0.0302  0.0014  0.8182  -20.3655   0.0000   0.2424
  17.000   1.8586   0.01861   0.01446  -0.0296  0.0013  0.8190  -20.5606   0.0000   0.2418
  17.100   1.8638   0.01888   0.01474  -0.0290  0.0013  0.8196  -20.7572   0.0000   0.2412
  17.200   1.8686   0.01916   0.01504  -0.0283  0.0013  0.8216  -20.9505   0.0000   0.2406
  17.300   1.8735   0.01945   0.01533  -0.0277  0.0013  0.8237  -21.1453   0.0000   0.2400
  17.400   1.8781   0.01976   0.01565  -0.0270  0.0013  0.8254  -21.3370   0.0000   0.2394
  17.500   1.8826   0.02007   0.01597  -0.0263  0.0013  0.8269  -21.5273   0.0000   0.2388
  17.600   1.8868   0.02039   0.01630  -0.0256  0.0012  0.8282  -21.7160   0.0000   0.2382
  17.700   1.8909   0.02073   0.01665  -0.0249  0.0012  0.8293  -21.9027   0.0000   0.2376
  17.800   1.8951   0.02107   0.01700  -0.0243  0.0012  0.8316  -22.0914   0.0000   0.2370
  17.900   1.8989   0.02143   0.01737  -0.0236  0.0012  0.8343  -22.2757   0.0000   0.2363
  18.000   1.9029   0.02179   0.01774  -0.0229  0.0011  0.8367  -22.4631   0.0000   0.2357
  18.100   1.9065   0.02217   0.01814  -0.0222  0.0011  0.8387  -22.6462   0.0000   0.2351
  18.200   1.9102   0.02255   0.01853  -0.0215  0.0011  0.8422  -22.8315   0.0000   0.2345
  18.300   1.9136   0.02294   0.01894  -0.0208  0.0011  0.8463  -23.0125   0.0000   0.2339
  18.400   1.9169   0.02334   0.01935  -0.0201  0.0011  0.8501  -23.1931   0.0000   0.2333
  18.500   1.9202   0.02374   0.01977  -0.0194  0.0010  0.8561  -23.3739   0.0000   0.2327
  18.600   1.9232   0.02415   0.02021  -0.0187  0.0010  0.8639  -23.5521   0.0000   0.2321
  18.700   1.9264   0.02456   0.02064  -0.0180  0.0010  0.8748  -23.7325   0.0000   0.2315
  18.900   1.9302   0.02519   0.02154  -0.0162  0.0010  1.0000  -24.0613   0.0000   0.2300
  19.000   1.9330   0.02567   0.02203  -0.0155  0.0009  1.0000  -24.2383   0.0000   0.2295
  19.100   1.9361   0.02613   0.02250  -0.0149  0.0009  1.0000  -24.4196   0.0000   0.2289
  19.200   1.9388   0.02663   0.02301  -0.0143  0.0009  1.0000  -24.5952   0.0000   0.2283
  19.300   1.9414   0.02712   0.02351  -0.0137  0.0009  1.0000  -24.7711   0.0000   0.2278
  19.400   1.9438   0.02763   0.02404  -0.0131  0.0009  1.0000  -24.9439   0.0000   0.2272
  19.500   1.9462   0.02816   0.02457  -0.0125  0.0008  1.0000  -25.1176   0.0000   0.2266
  19.600   1.9486   0.02870   0.02513  -0.0119  0.0008  1.0000  -25.2911   0.0000   0.2261
  19.700   1.9508   0.02927   0.02570  -0.0113  0.0008  1.0000  -25.4622   0.0000   0.2255
  19.800   1.9532   0.02983   0.02628  -0.0108  0.0008  1.0000  -25.6357   0.0000   0.2250
  19.900   1.9551   0.03044   0.02690  -0.0103  0.0008  1.0000  -25.8035   0.0000   0.2245
  20.000   1.9573   0.03103   0.02750  -0.0097  0.0007  1.0000  -25.9753   0.0000   0.2240


