xflr5 v6.32

 Calculated polar for: finalfoil mod1

 1 1 Reynolds number fixed          Mach number fixed         

 xtrf =   1.000 (top)        1.000 (bottom)
 Mach =   0.000     Re =     3.500 e 6     Ncrit =   9.000

  alpha     CL        CD       CDp       Cm    Top Xtr Bot Xtr   Cpmin    Chinge    XCp    
 ------- -------- --------- --------- -------- ------- ------- -------- --------- ---------
 -15.000  -1.1865   0.02676   0.02366  -0.0711  1.0000  0.0026  -17.1307   0.0000   0.1720
 -14.900  -1.1871   0.02595   0.02280  -0.0706  1.0000  0.0026  -17.0660   0.0000   0.1727
 -14.800  -1.1872   0.02520   0.02200  -0.0700  1.0000  0.0027  -16.9948   0.0000   0.1734
 -14.700  -1.1869   0.02450   0.02125  -0.0693  1.0000  0.0027  -16.9174   0.0000   0.1741
 -14.600  -1.1862   0.02385   0.02056  -0.0687  1.0000  0.0027  -16.8332   0.0000   0.1748
 -14.500  -1.1830   0.02319   0.01985  -0.0685  0.9961  0.0027  -16.7241   0.0000   0.1750
 -14.400  -1.1759   0.02250   0.01911  -0.0691  0.9917  0.0027  -16.5780   0.0000   0.1744
 -14.300  -1.1681   0.02187   0.01843  -0.0697  0.9879  0.0028  -16.4197   0.0000   0.1736
 -14.200  -1.1601   0.02131   0.01783  -0.0702  0.9836  0.0028  -16.2546   0.0000   0.1729
 -14.100  -1.1525   0.02083   0.01729  -0.0704  0.9785  0.0028  -16.0900   0.0000   0.1725
 -14.000  -1.1463   0.02041   0.01683  -0.0703  0.9729  0.0028  -15.9344   0.0000   0.1724
 -13.900  -1.1412   0.02005   0.01643  -0.0698  0.9671  0.0029  -15.7875   0.0000   0.1727
 -13.800  -1.1363   0.01973   0.01606  -0.0692  0.9624  0.0029  -15.6402   0.0000   0.1732
 -13.700  -1.1312   0.01942   0.01572  -0.0687  0.9583  0.0029  -15.4895   0.0000   0.1736
 -13.600  -1.1258   0.01914   0.01540  -0.0681  0.9547  0.0029  -15.3347   0.0000   0.1740
 -13.500  -1.1200   0.01887   0.01510  -0.0675  0.9515  0.0030  -15.1758   0.0000   0.1743
 -13.400  -1.1141   0.01861   0.01481  -0.0669  0.9487  0.0030  -15.0151   0.0000   0.1747
 -13.300  -1.1079   0.01838   0.01455  -0.0664  0.9461  0.0030  -14.8522   0.0000   0.1750
 -13.200  -1.1010   0.01814   0.01428  -0.0660  0.9438  0.0030  -14.6817   0.0000   0.1751
 -13.100  -1.0936   0.01790   0.01402  -0.0657  0.9419  0.0030  -14.5077   0.0000   0.1752
 -13.000  -1.0860   0.01766   0.01376  -0.0654  0.9398  0.0031  -14.3318   0.0000   0.1752
 -12.900  -1.0782   0.01743   0.01350  -0.0651  0.9378  0.0031  -14.1558   0.0000   0.1751
 -12.800  -1.0704   0.01721   0.01326  -0.0648  0.9361  0.0031  -13.9797   0.0000   0.1751
 -12.700  -1.0623   0.01699   0.01302  -0.0646  0.9342  0.0032  -13.8020   0.0000   0.1750
 -12.600  -1.0541   0.01678   0.01278  -0.0643  0.9324  0.0032  -13.6249   0.0000   0.1749
 -12.500  -1.0459   0.01657   0.01254  -0.0641  0.9307  0.0032  -13.4483   0.0000   0.1748
 -12.400  -1.0376   0.01636   0.01231  -0.0639  0.9290  0.0032  -13.2712   0.0000   0.1747
 -12.300  -1.0290   0.01615   0.01209  -0.0637  0.9273  0.0033  -13.0938   0.0000   0.1745
 -12.200  -1.0205   0.01595   0.01186  -0.0635  0.9256  0.0033  -12.9173   0.0000   0.1743
 -12.100  -1.0119   0.01575   0.01164  -0.0633  0.9241  0.0033  -12.7413   0.0000   0.1741
 -12.000  -1.0031   0.01555   0.01142  -0.0631  0.9227  0.0034  -12.5650   0.0000   0.1739
 -11.900  -0.9943   0.01536   0.01121  -0.0629  0.9211  0.0034  -12.3884   0.0000   0.1736
 -11.800  -0.9853   0.01517   0.01100  -0.0628  0.9196  0.0034  -12.2125   0.0000   0.1733
 -11.700  -0.9764   0.01498   0.01079  -0.0626  0.9182  0.0035  -12.0371   0.0000   0.1731
 -11.600  -0.9674   0.01480   0.01059  -0.0624  0.9168  0.0035  -11.8622   0.0000   0.1728
 -11.500  -0.9582   0.01462   0.01039  -0.0623  0.9155  0.0035  -11.6865   0.0000   0.1724
 -11.400  -0.9489   0.01444   0.01019  -0.0622  0.9140  0.0036  -11.5110   0.0000   0.1720
 -11.300  -0.9396   0.01426   0.01000  -0.0621  0.9126  0.0036  -11.3360   0.0000   0.1716
 -11.200  -0.9302   0.01409   0.00981  -0.0619  0.9113  0.0036  -11.1615   0.0000   0.1712
 -11.100  -0.9209   0.01393   0.00963  -0.0618  0.9101  0.0037  -10.9875   0.0000   0.1708
 -11.000  -0.9114   0.01377   0.00945  -0.0617  0.9088  0.0037  -10.8132   0.0000   0.1703
 -10.900  -0.9017   0.01361   0.00927  -0.0616  0.9075  0.0037  -10.6388   0.0000   0.1698
 -10.800  -0.8921   0.01345   0.00910  -0.0616  0.9062  0.0037  -10.4650   0.0000   0.1693
 -10.700  -0.8824   0.01330   0.00893  -0.0615  0.9049  0.0038  -10.2919   0.0000   0.1687
 -10.600  -0.8727   0.01315   0.00877  -0.0614  0.9037  0.0038  -10.1196   0.0000   0.1681
 -10.500  -0.8630   0.01301   0.00861  -0.0613  0.9025  0.0038  -9.9480   0.0000   0.1676
 -10.400  -0.8531   0.01287   0.00845  -0.0613  0.9013  0.0038  -9.7762   0.0000   0.1669
 -10.300  -0.8432   0.01273   0.00830  -0.0612  0.9000  0.0038  -9.6050   0.0000   0.1662
 -10.200  -0.8332   0.01259   0.00815  -0.0612  0.8986  0.0038  -9.4349   0.0000   0.1655
 -10.100  -0.8233   0.01245   0.00800  -0.0611  0.8974  0.0039  -9.2659   0.0000   0.1648
 -10.000  -0.8133   0.01233   0.00786  -0.0610  0.8962  0.0039  -9.0980   0.0000   0.1641
  -9.900  -0.8033   0.01220   0.00772  -0.0610  0.8951  0.0039  -8.9311   0.0000   0.1633
  -9.800  -0.7931   0.01207   0.00758  -0.0610  0.8939  0.0039  -8.7645   0.0000   0.1625
  -9.700  -0.7830   0.01194   0.00744  -0.0609  0.8927  0.0039  -8.5989   0.0000   0.1616
  -9.600  -0.7728   0.01182   0.00730  -0.0609  0.8915  0.0039  -8.4345   0.0000   0.1607
  -9.500  -0.7643   0.01146   0.00690  -0.0606  0.8901  0.0040  -8.3183   0.0000   0.1603
  -9.400  -0.7553   0.01119   0.00658  -0.0604  0.8889  0.0041  -8.1892   0.0000   0.1597
  -9.300  -0.7459   0.01097   0.00632  -0.0603  0.8877  0.0041  -8.0524   0.0000   0.1590
  -9.200  -0.7362   0.01077   0.00610  -0.0602  0.8865  0.0042  -7.9104   0.0000   0.1582
  -9.100  -0.7263   0.01059   0.00591  -0.0601  0.8853  0.0043  -7.7648   0.0000   0.1573
  -9.000  -0.7162   0.01043   0.00573  -0.0600  0.8841  0.0044  -7.6172   0.0000   0.1563
  -8.900  -0.7061   0.01029   0.00557  -0.0600  0.8829  0.0044  -7.4682   0.0000   0.1553
  -8.800  -0.6959   0.01015   0.00542  -0.0599  0.8817  0.0045  -7.3183   0.0000   0.1542
  -8.700  -0.6856   0.01003   0.00528  -0.0599  0.8806  0.0046  -7.1678   0.0000   0.1530
  -8.600  -0.6753   0.00992   0.00516  -0.0598  0.8795  0.0047  -7.0174   0.0000   0.1518
  -8.500  -0.6649   0.00980   0.00503  -0.0598  0.8784  0.0047  -6.8667   0.0000   0.1505
  -8.400  -0.6544   0.00969   0.00492  -0.0598  0.8772  0.0048  -6.7167   0.0000   0.1492
  -8.300  -0.6438   0.00958   0.00480  -0.0598  0.8760  0.0049  -6.5678   0.0000   0.1477
  -8.200  -0.6333   0.00947   0.00469  -0.0598  0.8748  0.0050  -6.4201   0.0000   0.1463
  -8.100  -0.6228   0.00938   0.00458  -0.0598  0.8736  0.0050  -6.2738   0.0000   0.1447
  -8.000  -0.6122   0.00928   0.00448  -0.0598  0.8725  0.0051  -6.1289   0.0000   0.1432
  -7.900  -0.6017   0.00919   0.00437  -0.0598  0.8714  0.0052  -5.9854   0.0000   0.1415
  -7.800  -0.5910   0.00909   0.00427  -0.0598  0.8703  0.0053  -5.8422   0.0000   0.1397
  -7.700  -0.5803   0.00900   0.00418  -0.0599  0.8692  0.0054  -5.6999   0.0000   0.1379
  -7.600  -0.5695   0.00891   0.00408  -0.0599  0.8680  0.0055  -5.5585   0.0000   0.1359
  -7.500  -0.5588   0.00883   0.00399  -0.0599  0.8668  0.0055  -5.4181   0.0000   0.1339
  -7.400  -0.5480   0.00875   0.00391  -0.0600  0.8656  0.0056  -5.2786   0.0000   0.1318
  -7.300  -0.5373   0.00868   0.00383  -0.0600  0.8645  0.0056  -5.1401   0.0000   0.1296
  -7.200  -0.5265   0.00861   0.00375  -0.0600  0.8633  0.0057  -5.0028   0.0000   0.1274
  -7.100  -0.5161   0.00847   0.00359  -0.0599  0.8622  0.0059  -4.8817   0.0000   0.1252
  -7.000  -0.5055   0.00835   0.00347  -0.0599  0.8610  0.0062  -4.7551   0.0000   0.1228
  -6.900  -0.4948   0.00826   0.00337  -0.0600  0.8597  0.0064  -4.6261   0.0000   0.1203
  -6.800  -0.4840   0.00817   0.00328  -0.0600  0.8585  0.0066  -4.4965   0.0000   0.1176
  -6.700  -0.4732   0.00809   0.00319  -0.0600  0.8573  0.0068  -4.3674   0.0000   0.1147
  -6.600  -0.4624   0.00802   0.00311  -0.0600  0.8561  0.0070  -4.2396   0.0000   0.1117
  -6.500  -0.4516   0.00795   0.00304  -0.0601  0.8550  0.0072  -4.1133   0.0000   0.1086
  -6.400  -0.4407   0.00788   0.00296  -0.0601  0.8539  0.0074  -3.9874   0.0000   0.1052
  -6.300  -0.4296   0.00781   0.00290  -0.0602  0.8528  0.0076  -3.8622   0.0000   0.1016
  -6.200  -0.4186   0.00775   0.00283  -0.0602  0.8516  0.0077  -3.7377   0.0000   0.0977
  -6.100  -0.4079   0.00765   0.00273  -0.0602  0.8504  0.0085  -3.6228   0.0000   0.0940
  -6.000  -0.3971   0.00757   0.00265  -0.0603  0.8492  0.0092  -3.5045   0.0000   0.0899
  -5.900  -0.3862   0.00750   0.00258  -0.0603  0.8481  0.0098  -3.3966   0.0000   0.0855
  -5.800  -0.3752   0.00744   0.00252  -0.0603  0.8469  0.0103  -3.2925   0.0000   0.0809
  -5.700  -0.3645   0.00736   0.00244  -0.0603  0.8457  0.0116  -3.1919   0.0000   0.0761
  -5.600  -0.3534   0.00729   0.00238  -0.0604  0.8446  0.0125  -3.0888   0.0000   0.0707
  -5.500  -0.3424   0.00721   0.00231  -0.0604  0.8433  0.0138  -2.9875   0.0000   0.0651
  -5.400  -0.3315   0.00714   0.00225  -0.0605  0.8420  0.0152  -2.8867   0.0000   0.0591
  -5.300  -0.3206   0.00707   0.00218  -0.0605  0.8406  0.0168  -2.7870   0.0000   0.0527
  -5.200  -0.3097   0.00701   0.00212  -0.0606  0.8393  0.0186  -2.6885   0.0000   0.0459
  -5.100  -0.2988   0.00694   0.00206  -0.0606  0.8380  0.0206  -2.5913   0.0000   0.0387
  -4.900  -0.2769   0.00680   0.00195  -0.0607  0.8355  0.0257  -2.3993   0.0000   0.0221
  -4.800  -0.2659   0.00673   0.00189  -0.0607  0.8340  0.0292  -2.3052   0.0000   0.0129
  -4.700  -0.2550   0.00665   0.00183  -0.0608  0.8326  0.0337  -2.2127   0.0000   0.0029
  -4.600  -0.2442   0.00657   0.00177  -0.0608  0.8312  0.0384  -2.1215   0.0000  -0.0079
  -4.500  -0.2334   0.00650   0.00172  -0.0608  0.8298  0.0438  -2.0319   0.0000  -0.0196
  -4.400  -0.2226   0.00643   0.00166  -0.0608  0.8284  0.0492  -1.9433   0.0000  -0.0324
  -4.300  -0.2117   0.00635   0.00161  -0.0608  0.8270  0.0559  -1.8556   0.0000  -0.0469
  -4.200  -0.2008   0.00627   0.00156  -0.0609  0.8255  0.0631  -1.7691   0.0000  -0.0629
  -4.100  -0.1899   0.00619   0.00151  -0.0609  0.8239  0.0707  -1.6840   0.0000  -0.0807
  -4.000  -0.1790   0.00612   0.00146  -0.0609  0.8223  0.0786  -1.6002   0.0000  -0.1005
  -3.900  -0.1683   0.00604   0.00141  -0.0609  0.8207  0.0873  -1.5181   0.0000  -0.1225
  -3.800  -0.1576   0.00597   0.00136  -0.0609  0.8191  0.0970  -1.4371   0.0000  -0.1474
  -3.700  -0.1467   0.00588   0.00132  -0.0610  0.8174  0.1079  -1.3650   0.0000  -0.1769
  -3.600  -0.1359   0.00580   0.00128  -0.0610  0.8156  0.1191  -1.2950   0.0000  -0.2106
  -3.500  -0.1250   0.00572   0.00123  -0.0610  0.8137  0.1301  -1.2259   0.0000  -0.2503
  -3.400  -0.1144   0.00564   0.00119  -0.0610  0.8119  0.1431  -1.1585   0.0000  -0.2963
  -3.300  -0.1039   0.00555   0.00115  -0.0610  0.8102  0.1601  -1.0927   0.0000  -0.3504
  -3.200  -0.0934   0.00542   0.00110  -0.0610  0.8085  0.1816  -1.0277   0.0000  -0.4177
  -3.100  -0.0829   0.00530   0.00105  -0.0610  0.8066  0.2037  -0.9639   0.0000  -0.5012
  -3.000  -0.0723   0.00520   0.00101  -0.0609  0.8047  0.2228  -0.9005   0.0000  -0.6102
  -2.900  -0.0618   0.00511   0.00097  -0.0609  0.8029  0.2423  -0.8385   0.0000  -0.7551
  -2.800  -0.0515   0.00500   0.00093  -0.0609  0.8011  0.2657  -0.7782   0.0000  -0.9532
  -2.700  -0.0412   0.00486   0.00088  -0.0608  0.7993  0.2946  -0.7188   0.0000  -1.2520
  -2.500  -0.0212   0.00455   0.00078  -0.0606  0.7953  0.3634  -0.6341   0.0000  -2.6569
  -2.400  -0.0113   0.00441   0.00074  -0.0605  0.7933  0.3977  -0.5976   0.0000  -5.1929
  -2.300  -0.0013   0.00428   0.00070  -0.0604  0.7913  0.4286  -0.5620   0.0000  -45.7423
  -2.200   0.0092   0.00417   0.00067  -0.0603  0.7893  0.4549  -0.5309   0.0000   6.9360
  -2.100   0.0198   0.00408   0.00064  -0.0603  0.7872  0.4746  -0.5031   0.0000   3.3323
  -2.000   0.0305   0.00401   0.00062  -0.0603  0.7851  0.4946  -0.4798   0.0000   2.2541
  -1.800   0.0513   0.00384   0.00057  -0.0602  0.7809  0.5409  -0.4341   0.0000   1.4347
  -1.700   0.0620   0.00376   0.00055  -0.0602  0.7787  0.5616  -0.4120   0.0000   1.2295
  -1.600   0.0730   0.00371   0.00053  -0.0602  0.7763  0.5762  -0.3928   0.0000   1.0823
  -1.500   0.0839   0.00368   0.00052  -0.0602  0.7738  0.5866  -0.3928   0.0000   0.9732
  -1.400   0.0949   0.00365   0.00051  -0.0602  0.7715  0.5969  -0.3977   0.0000   0.8893
  -1.300   0.1060   0.00361   0.00050  -0.0603  0.7689  0.6079  -0.4027   0.0000   0.8222
  -1.200   0.1171   0.00358   0.00049  -0.0603  0.7661  0.6185  -0.4079   0.0000   0.7681
  -1.100   0.1281   0.00356   0.00049  -0.0603  0.7634  0.6276  -0.4134   0.0000   0.7233
  -1.000   0.1393   0.00355   0.00049  -0.0604  0.7608  0.6352  -0.4192   0.0000   0.6853
  -0.900   0.1505   0.00353   0.00048  -0.0604  0.7578  0.6424  -0.4251   0.0000   0.6530
  -0.800   0.1616   0.00352   0.00048  -0.0604  0.7544  0.6492  -0.4311   0.0000   0.6252
  -0.700   0.1727   0.00352   0.00048  -0.0605  0.7512  0.6560  -0.4371   0.0000   0.6010
  -0.600   0.1839   0.00351   0.00048  -0.0605  0.7479  0.6617  -0.4434   0.0000   0.5796
  -0.500   0.1951   0.00351   0.00048  -0.0606  0.7443  0.6669  -0.4499   0.0000   0.5607
  -0.400   0.2062   0.00352   0.00048  -0.0606  0.7409  0.6707  -0.4568   0.0000   0.5438
  -0.300   0.2175   0.00352   0.00048  -0.0607  0.7370  0.6743  -0.4638   0.0000   0.5287
  -0.200   0.2287   0.00353   0.00048  -0.0607  0.7330  0.6780  -0.4706   0.0000   0.5150
  -0.100   0.2399   0.00353   0.00048  -0.0608  0.7293  0.6818  -0.4779   0.0000   0.5026
   0.000   0.2511   0.00353   0.00049  -0.0608  0.7250  0.6866  -0.4856   0.0000   0.4914
   0.100   0.2622   0.00355   0.00049  -0.0609  0.7209  0.6914  -0.4933   0.0000   0.4811
   0.200   0.2733   0.00355   0.00050  -0.0609  0.7167  0.6965  -0.5011   0.0000   0.4716
   0.300   0.2844   0.00356   0.00051  -0.0609  0.7122  0.7014  -0.5090   0.0000   0.4629
   0.400   0.2955   0.00357   0.00052  -0.0610  0.7079  0.7058  -0.5172   0.0000   0.4548
   0.500   0.3066   0.00359   0.00053  -0.0610  0.7025  0.7100  -0.5258   0.0000   0.4473
   0.600   0.3177   0.00361   0.00054  -0.0610  0.6970  0.7135  -0.5351   0.0000   0.4403
   0.800   0.3394   0.00366   0.00057  -0.0610  0.6823  0.7201  -0.5543   0.0000   0.4277
   0.900   0.3502   0.00370   0.00058  -0.0609  0.6744  0.7231  -0.5643   0.0000   0.4219
   1.000   0.3610   0.00374   0.00060  -0.0609  0.6657  0.7257  -0.5744   0.0000   0.4166
   1.100   0.3715   0.00379   0.00062  -0.0608  0.6561  0.7284  -0.5849   0.0000   0.4115
   1.200   0.3821   0.00384   0.00064  -0.0608  0.6459  0.7311  -0.5955   0.0000   0.4066
   1.300   0.3927   0.00390   0.00066  -0.0607  0.6346  0.7334  -0.6061   0.0000   0.4021
   1.400   0.4032   0.00397   0.00068  -0.0606  0.6223  0.7352  -0.6170   0.0000   0.3978
   1.500   0.4135   0.00403   0.00071  -0.0605  0.6101  0.7370  -0.6300   0.0000   0.3936
   1.600   0.4240   0.00409   0.00074  -0.0604  0.5983  0.7387  -0.6440   0.0000   0.3897
   1.700   0.4344   0.00415   0.00076  -0.0603  0.5870  0.7404  -0.6587   0.0000   0.3860
   1.800   0.4449   0.00422   0.00079  -0.0602  0.5749  0.7420  -0.6735   0.0000   0.3825
   1.900   0.4552   0.00430   0.00083  -0.0601  0.5613  0.7435  -0.6881   0.0000   0.3791
   2.000   0.4653   0.00440   0.00086  -0.0600  0.5459  0.7449  -0.7035   0.0000   0.3758
   2.100   0.4754   0.00449   0.00090  -0.0598  0.5305  0.7461  -0.7200   0.0000   0.3727
   2.300   0.4956   0.00467   0.00098  -0.0595  0.5001  0.7491  -0.7550   0.0000   0.3668
   2.400   0.5056   0.00476   0.00102  -0.0594  0.4853  0.7506  -0.7732   0.0000   0.3640
   2.500   0.5157   0.00486   0.00107  -0.0593  0.4704  0.7520  -0.7916   0.0000   0.3614
   2.600   0.5258   0.00495   0.00111  -0.0591  0.4553  0.7534  -0.8101   0.0000   0.3588
   2.700   0.5359   0.00505   0.00115  -0.0590  0.4407  0.7547  -0.8314   0.0000   0.3564
   2.800   0.5462   0.00515   0.00119  -0.0589  0.4274  0.7559  -0.8540   0.0000   0.3541
   2.900   0.5563   0.00525   0.00124  -0.0588  0.4129  0.7569  -0.8767   0.0000   0.3518
   3.000   0.5662   0.00535   0.00129  -0.0586  0.3965  0.7582  -0.8991   0.0000   0.3496
   3.100   0.5761   0.00546   0.00134  -0.0584  0.3812  0.7594  -0.9217   0.0000   0.3474
   3.200   0.5861   0.00556   0.00139  -0.0583  0.3668  0.7606  -0.9470   0.0000   0.3454
   3.300   0.5964   0.00564   0.00144  -0.0582  0.3549  0.7618  -0.9729   0.0000   0.3434
   3.400   0.6066   0.00573   0.00149  -0.0581  0.3434  0.7630  -0.9997   0.0000   0.3415
   3.500   0.6168   0.00583   0.00154  -0.0580  0.3304  0.7642  -1.0310   0.0000   0.3397
   3.600   0.6267   0.00595   0.00160  -0.0578  0.3162  0.7653  -1.0661   0.0000   0.3378
   3.700   0.6364   0.00608   0.00166  -0.0576  0.2988  0.7664  -1.1013   0.0000   0.3361
   3.800   0.6459   0.00623   0.00173  -0.0574  0.2802  0.7674  -1.1458   0.0000   0.3343
   3.900   0.6553   0.00637   0.00180  -0.0572  0.2619  0.7684  -1.1941   0.0000   0.3326
   4.000   0.6648   0.00651   0.00187  -0.0569  0.2449  0.7696  -1.2432   0.0000   0.3309
   4.100   0.6745   0.00663   0.00194  -0.0568  0.2300  0.7706  -1.2934   0.0000   0.3293
   4.200   0.6840   0.00677   0.00202  -0.0565  0.2141  0.7716  -1.3435   0.0000   0.3277
   4.300   0.6938   0.00690   0.00209  -0.0564  0.1995  0.7726  -1.3994   0.0000   0.3262
   4.400   0.7034   0.00703   0.00216  -0.0562  0.1858  0.7736  -1.4559   0.0000   0.3247
   4.500   0.7132   0.00716   0.00224  -0.0560  0.1726  0.7746  -1.5135   0.0000   0.3233
   4.600   0.7231   0.00728   0.00231  -0.0558  0.1614  0.7756  -1.5721   0.0000   0.3219
   4.700   0.7331   0.00739   0.00238  -0.0557  0.1520  0.7765  -1.6316   0.0000   0.3206
   4.800   0.7432   0.00750   0.00245  -0.0556  0.1429  0.7774  -1.6920   0.0000   0.3193
   4.900   0.7532   0.00761   0.00252  -0.0555  0.1332  0.7781  -1.7561   0.0000   0.3181
   5.000   0.7630   0.00773   0.00259  -0.0553  0.1236  0.7792  -1.8233   0.0000   0.3168
   5.100   0.7730   0.00783   0.00267  -0.0552  0.1151  0.7802  -1.8913   0.0000   0.3156
   5.200   0.7829   0.00794   0.00274  -0.0550  0.1076  0.7812  -1.9626   0.0000   0.3145
   5.300   0.7930   0.00804   0.00282  -0.0549  0.1006  0.7821  -2.0397   0.0000   0.3133
   5.400   0.8030   0.00814   0.00289  -0.0548  0.0938  0.7831  -2.1177   0.0000   0.3122
   5.500   0.8129   0.00825   0.00297  -0.0546  0.0871  0.7840  -2.1964   0.0000   0.3111
   5.600   0.8228   0.00837   0.00305  -0.0545  0.0803  0.7849  -2.2758   0.0000   0.3100
   5.700   0.8326   0.00849   0.00314  -0.0543  0.0731  0.7858  -2.3556   0.0000   0.3089
   5.800   0.8424   0.00861   0.00323  -0.0542  0.0666  0.7867  -2.4364   0.0000   0.3079
   5.900   0.8523   0.00873   0.00331  -0.0540  0.0605  0.7875  -2.5185   0.0000   0.3069
   6.000   0.8621   0.00885   0.00340  -0.0539  0.0546  0.7882  -2.6012   0.0000   0.3059
   6.200   0.8817   0.00908   0.00358  -0.0535  0.0449  0.7900  -2.7693   0.0000   0.3039
   6.300   0.8915   0.00919   0.00368  -0.0534  0.0404  0.7909  -2.8546   0.0000   0.3030
   6.400   0.9013   0.00931   0.00377  -0.0532  0.0367  0.7918  -2.9409   0.0000   0.3020
   6.500   0.9112   0.00941   0.00386  -0.0531  0.0334  0.7926  -3.0286   0.0000   0.3011
   6.600   0.9210   0.00952   0.00395  -0.0529  0.0302  0.7935  -3.1168   0.0000   0.3002
   6.700   0.9308   0.00963   0.00405  -0.0528  0.0273  0.7943  -3.2057   0.0000   0.2993
   6.900   0.9505   0.00985   0.00425  -0.0525  0.0226  0.7959  -3.3866   0.0000   0.2976
   7.000   0.9602   0.00997   0.00435  -0.0523  0.0206  0.7968  -3.4781   0.0000   0.2968
   7.100   0.9701   0.01007   0.00444  -0.0521  0.0190  0.7976  -3.5781   0.0000   0.2960
   7.200   0.9799   0.01018   0.00454  -0.0520  0.0175  0.7983  -3.6804   0.0000   0.2952
   7.300   0.9898   0.01029   0.00464  -0.0518  0.0163  0.7990  -3.7845   0.0000   0.2944
   7.400   0.9994   0.01040   0.00474  -0.0517  0.0149  0.7999  -3.8878   0.0000   0.2936
   7.500   1.0092   0.01049   0.00484  -0.0515  0.0142  0.8008  -3.9939   0.0000   0.2928
   7.600   1.0189   0.01059   0.00494  -0.0513  0.0135  0.8017  -4.1003   0.0000   0.2920
   7.700   1.0285   0.01071   0.00505  -0.0512  0.0126  0.8025  -4.2065   0.0000   0.2913
   7.800   1.0382   0.01081   0.00516  -0.0510  0.0120  0.8034  -4.3144   0.0000   0.2905
   7.900   1.0480   0.01090   0.00525  -0.0508  0.0116  0.8042  -4.4252   0.0000   0.2898
   8.000   1.0577   0.01100   0.00536  -0.0507  0.0112  0.8050  -4.5361   0.0000   0.2891
   8.100   1.0673   0.01111   0.00546  -0.0505  0.0107  0.8058  -4.6471   0.0000   0.2883
   8.200   1.0767   0.01124   0.00558  -0.0503  0.0101  0.8067  -4.7577   0.0000   0.2876
   8.300   1.0861   0.01137   0.00571  -0.0500  0.0096  0.8075  -4.8673   0.0000   0.2869
   8.400   1.0958   0.01146   0.00581  -0.0499  0.0095  0.8083  -4.9829   0.0000   0.2862
   8.500   1.1055   0.01156   0.00591  -0.0497  0.0093  0.8090  -5.0990   0.0000   0.2855
   8.700   1.1244   0.01177   0.00613  -0.0493  0.0088  0.8107  -5.3314   0.0000   0.2841
   8.800   1.1336   0.01188   0.00625  -0.0491  0.0085  0.8116  -5.4479   0.0000   0.2834
   8.900   1.1428   0.01200   0.00638  -0.0488  0.0082  0.8125  -5.5643   0.0000   0.2827
   9.000   1.1517   0.01214   0.00652  -0.0485  0.0078  0.8133  -5.6856   0.0000   0.2820
   9.100   1.1603   0.01230   0.00669  -0.0482  0.0074  0.8142  -5.8074   0.0000   0.2813
   9.200   1.1697   0.01240   0.00680  -0.0480  0.0074  0.8151  -5.9398   0.0000   0.2806
   9.300   1.1789   0.01251   0.00691  -0.0477  0.0073  0.8160  -6.0721   0.0000   0.2800
   9.400   1.1878   0.01261   0.00703  -0.0474  0.0072  0.8168  -6.2035   0.0000   0.2793
   9.500   1.1964   0.01272   0.00714  -0.0470  0.0071  0.8176  -6.3342   0.0000   0.2785
   9.600   1.2048   0.01283   0.00726  -0.0466  0.0069  0.8185  -6.4643   0.0000   0.2778
   9.700   1.2132   0.01295   0.00738  -0.0462  0.0068  0.8192  -6.5955   0.0000   0.2771
   9.900   1.2299   0.01321   0.00765  -0.0455  0.0064  0.8212  -6.8615   0.0000   0.2756
  10.000   1.2382   0.01335   0.00779  -0.0451  0.0063  0.8223  -6.9951   0.0000   0.2749
  10.100   1.2463   0.01350   0.00796  -0.0447  0.0060  0.8233  -7.1273   0.0000   0.2742
  10.200   1.2540   0.01369   0.00816  -0.0441  0.0057  0.8243  -7.2544   0.0000   0.2734
  10.300   1.2614   0.01389   0.00838  -0.0436  0.0055  0.8254  -7.3791   0.0000   0.2727
  10.400   1.2698   0.01402   0.00851  -0.0432  0.0055  0.8265  -7.5189   0.0000   0.2720
  10.500   1.2781   0.01415   0.00865  -0.0429  0.0055  0.8275  -7.6588   0.0000   0.2713
  10.600   1.2864   0.01428   0.00880  -0.0425  0.0054  0.8285  -7.7990   0.0000   0.2707
  10.700   1.2945   0.01442   0.00895  -0.0421  0.0054  0.8293  -7.9394   0.0000   0.2700
  10.900   1.3105   0.01471   0.00926  -0.0413  0.0052  0.8316  -8.2202   0.0000   0.2687
  11.000   1.3183   0.01486   0.00943  -0.0408  0.0052  0.8328  -8.3610   0.0000   0.2680
  11.100   1.3261   0.01502   0.00959  -0.0404  0.0051  0.8339  -8.5022   0.0000   0.2674
  11.200   1.3338   0.01518   0.00976  -0.0400  0.0050  0.8351  -8.6438   0.0000   0.2667
  11.300   1.3414   0.01534   0.00994  -0.0395  0.0050  0.8363  -8.7858   0.0000   0.2660
  11.400   1.3489   0.01551   0.01012  -0.0390  0.0049  0.8375  -8.9281   0.0000   0.2654
  11.500   1.3563   0.01568   0.01030  -0.0385  0.0048  0.8388  -9.0706   0.0000   0.2647
  11.700   1.3708   0.01604   0.01069  -0.0376  0.0047  0.8416  -9.3560   0.0000   0.2634
  11.800   1.3779   0.01623   0.01089  -0.0370  0.0046  0.8432  -9.4987   0.0000   0.2627
  11.900   1.3849   0.01642   0.01110  -0.0365  0.0045  0.8450  -9.6409   0.0000   0.2620
  12.000   1.3918   0.01663   0.01132  -0.0360  0.0044  0.8468  -9.7824   0.0000   0.2613
  12.100   1.3984   0.01685   0.01155  -0.0354  0.0044  0.8486  -9.9222   0.0000   0.2606
  12.200   1.4048   0.01708   0.01181  -0.0348  0.0043  0.8505  -10.0593   0.0000   0.2599
  12.300   1.4109   0.01733   0.01208  -0.0342  0.0042  0.8528  -10.1928   0.0000   0.2592
  12.400   1.4165   0.01761   0.01240  -0.0335  0.0041  0.8552  -10.3271   0.0000   0.2584
  12.500   1.4215   0.01794   0.01276  -0.0327  0.0039  0.8576  -10.4605   0.0000   0.2576
  12.600   1.4273   0.01821   0.01306  -0.0320  0.0039  0.8603  -10.6057   0.0000   0.2569
  12.700   1.4342   0.01839   0.01326  -0.0315  0.0039  0.8635  -10.7668   0.0000   0.2563
  12.800   1.4410   0.01858   0.01347  -0.0310  0.0039  0.8670  -10.9286   0.0000   0.2557
  12.900   1.4477   0.01877   0.01369  -0.0305  0.0038  0.8711  -11.0901   0.0000   0.2551
  13.000   1.4543   0.01897   0.01391  -0.0300  0.0038  0.8764  -11.2515   0.0000   0.2544
  13.100   1.4607   0.01917   0.01415  -0.0294  0.0038  0.8835  -11.4116   0.0000   0.2538
  13.200   1.4666   0.01936   0.01439  -0.0288  0.0038  0.8952  -11.5691   0.0000   0.2531
  13.300   1.4714   0.01941   0.01463  -0.0279  0.0037  0.9659  -11.7161   0.0000   0.2522
  13.600   1.4916   0.02016   0.01544  -0.0267  0.0037  1.0000  -12.2139   0.0000   0.2507
  13.700   1.4975   0.02044   0.01573  -0.0262  0.0036  1.0000  -12.3740   0.0000   0.2500
  13.800   1.5032   0.02071   0.01602  -0.0256  0.0036  1.0000  -12.5336   0.0000   0.2494
  13.900   1.5089   0.02100   0.01632  -0.0251  0.0036  1.0000  -12.6933   0.0000   0.2488
  14.000   1.5145   0.02129   0.01663  -0.0245  0.0035  1.0000  -12.8526   0.0000   0.2482
  14.100   1.5200   0.02159   0.01694  -0.0239  0.0035  1.0000  -13.0123   0.0000   0.2476
  14.200   1.5254   0.02190   0.01727  -0.0234  0.0035  1.0000  -13.1717   0.0000   0.2470
  14.300   1.5308   0.02222   0.01760  -0.0228  0.0034  1.0000  -13.3311   0.0000   0.2464
  14.400   1.5360   0.02254   0.01794  -0.0223  0.0034  1.0000  -13.4901   0.0000   0.2458
  14.500   1.5410   0.02288   0.01829  -0.0217  0.0034  1.0000  -13.6482   0.0000   0.2452
  14.600   1.5460   0.02322   0.01865  -0.0211  0.0033  1.0000  -13.8062   0.0000   0.2445
  14.700   1.5508   0.02357   0.01902  -0.0205  0.0033  1.0000  -13.9633   0.0000   0.2439
  14.800   1.5556   0.02393   0.01940  -0.0199  0.0032  1.0000  -14.1205   0.0000   0.2433
  14.900   1.5602   0.02431   0.01979  -0.0194  0.0032  1.0000  -14.2768   0.0000   0.2427
  15.000   1.5647   0.02470   0.02019  -0.0188  0.0032  1.0000  -14.4327   0.0000   0.2421
  15.100   1.5691   0.02509   0.02060  -0.0182  0.0031  1.0000  -14.5878   0.0000   0.2415
  15.200   1.5732   0.02550   0.02103  -0.0176  0.0031  1.0000  -14.7410   0.0000   0.2409
  15.300   1.5772   0.02593   0.02147  -0.0170  0.0031  1.0000  -14.8931   0.0000   0.2403
  15.400   1.5810   0.02637   0.02194  -0.0164  0.0030  1.0000  -15.0426   0.0000   0.2397
  15.500   1.5846   0.02683   0.02242  -0.0158  0.0030  1.0000  -15.1907   0.0000   0.2391
  15.600   1.5879   0.02732   0.02293  -0.0152  0.0030  1.0000  -15.3356   0.0000   0.2385
  15.700   1.5910   0.02782   0.02346  -0.0145  0.0029  1.0000  -15.4784   0.0000   0.2379
  15.800   1.5938   0.02836   0.02402  -0.0139  0.0029  1.0000  -15.6169   0.0000   0.2372
  15.900   1.5963   0.02893   0.02461  -0.0132  0.0028  1.0000  -15.7524   0.0000   0.2366
  16.000   1.5984   0.02953   0.02525  -0.0126  0.0028  1.0000  -15.8821   0.0000   0.2360
  16.100   1.6001   0.03017   0.02591  -0.0119  0.0028  1.0000  -16.0069   0.0000   0.2353
  16.200   1.6012   0.03085   0.02663  -0.0112  0.0027  1.0000  -16.1252   0.0000   0.2347
  16.300   1.6020   0.03158   0.02739  -0.0105  0.0027  1.0000  -16.2378   0.0000   0.2340
  16.400   1.6022   0.03236   0.02822  -0.0098  0.0026  1.0000  -16.3433   0.0000   0.2334
  16.500   1.6017   0.03322   0.02912  -0.0091  0.0026  1.0000  -16.4395   0.0000   0.2327
  16.600   1.6005   0.03414   0.03010  -0.0083  0.0026  1.0000  -16.5261   0.0000   0.2320
  16.700   1.5988   0.03513   0.03114  -0.0076  0.0025  1.0000  -16.6058   0.0000   0.2314
  16.800   1.6010   0.03579   0.03181  -0.0072  0.0025  1.0000  -16.7437   0.0000   0.2309
  16.900   1.6032   0.03646   0.03251  -0.0068  0.0025  1.0000  -16.8808   0.0000   0.2304
  17.000   1.6050   0.03715   0.03323  -0.0064  0.0025  1.0000  -17.0153   0.0000   0.2299
  17.100   1.6069   0.03787   0.03396  -0.0060  0.0025  1.0000  -17.1496   0.0000   0.2294
  17.200   1.6086   0.03861   0.03473  -0.0056  0.0025  1.0000  -17.2826   0.0000   0.2290
  17.300   1.6102   0.03937   0.03552  -0.0053  0.0025  1.0000  -17.4141   0.0000   0.2285
  17.400   1.6118   0.04016   0.03633  -0.0049  0.0025  1.0000  -17.5449   0.0000   0.2281
  17.500   1.6130   0.04098   0.03718  -0.0046  0.0025  1.0000  -17.6725   0.0000   0.2276
  17.600   1.6143   0.04182   0.03804  -0.0044  0.0025  1.0000  -17.8001   0.0000   0.2272
  17.700   1.6153   0.04270   0.03895  -0.0041  0.0025  1.0000  -17.9240   0.0000   0.2268
  17.800   1.6162   0.04360   0.03988  -0.0039  0.0025  1.0000  -18.0471   0.0000   0.2265
  17.900   1.6169   0.04453   0.04083  -0.0037  0.0025  1.0000  -18.1678   0.0000   0.2261
  18.000   1.6173   0.04550   0.04184  -0.0035  0.0025  1.0000  -18.2840   0.0000   0.2257
  18.100   1.6176   0.04650   0.04286  -0.0033  0.0025  1.0000  -18.3988   0.0000   0.2254
  18.200   1.6176   0.04754   0.04393  -0.0032  0.0025  1.0000  -18.5097   0.0000   0.2250
  18.300   1.6174   0.04862   0.04504  -0.0031  0.0025  1.0000  -18.6178   0.0000   0.2247
  18.400   1.6171   0.04973   0.04619  -0.0030  0.0025  1.0000  -18.7245   0.0000   0.2244
  18.500   1.6166   0.05089   0.04738  -0.0030  0.0025  1.0000  -18.8275   0.0000   0.2242
  18.600   1.6158   0.05211   0.04863  -0.0030  0.0024  1.0000  -18.9260   0.0000   0.2239
  18.700   1.6148   0.05336   0.04991  -0.0030  0.0024  1.0000  -19.0225   0.0000   0.2237
  18.800   1.6137   0.05466   0.05124  -0.0031  0.0024  1.0000  -19.1156   0.0000   0.2235
  18.900   1.6122   0.05602   0.05263  -0.0033  0.0024  1.0000  -19.2037   0.0000   0.2233
  19.000   1.6104   0.05743   0.05408  -0.0034  0.0024  1.0000  -19.2868   0.0000   0.2231
  19.100   1.6084   0.05890   0.05559  -0.0037  0.0024  1.0000  -19.3660   0.0000   0.2230
  19.200   1.6061   0.06043   0.05715  -0.0039  0.0024  1.0000  -19.4406   0.0000   0.2229
  19.300   1.6034   0.06201   0.05876  -0.0042  0.0024  1.0000  -19.5085   0.0000   0.2228
  19.400   1.6004   0.06366   0.06045  -0.0046  0.0024  1.0000  -19.5702   0.0000   0.2228
  19.500   1.5970   0.06539   0.06222  -0.0050  0.0024  1.0000  -19.6260   0.0000   0.2228
  19.600   1.5933   0.06720   0.06407  -0.0055  0.0024  1.0000  -19.6757   0.0000   0.2228
  19.700   1.5892   0.06909   0.06600  -0.0060  0.0024  1.0000  -19.7187   0.0000   0.2229
  19.800   1.5847   0.07106   0.06801  -0.0066  0.0024  1.0000  -19.7546   0.0000   0.2230
  19.900   1.5798   0.07312   0.07011  -0.0073  0.0024  1.0000  -19.7830   0.0000   0.2231
  20.000   1.5745   0.07527   0.07231  -0.0080  0.0024  1.0000  -19.8032   0.0000   0.2233


