xflr5 v6.32

 Calculated polar for: finalfoil mod1

 1 1 Reynolds number fixed          Mach number fixed         

 xtrf =   1.000 (top)        1.000 (bottom)
 Mach =   0.000     Re =    80.000 e 6     Ncrit =   9.000

  alpha     CL        CD       CDp       Cm    Top Xtr Bot Xtr   Cpmin    Chinge    XCp    
 ------- -------- --------- --------- -------- ------- ------- -------- --------- ---------
 -14.900  -1.3796   0.01029   0.00683  -0.0532  0.8255  0.0013  -20.9940   0.0000   0.1939
 -14.800  -1.3697   0.01019   0.00673  -0.0531  0.8238  0.0013  -20.7436   0.0000   0.1938
 -14.700  -1.3598   0.01010   0.00663  -0.0531  0.8217  0.0013  -20.4942   0.0000   0.1938
 -14.600  -1.3498   0.01000   0.00653  -0.0530  0.8195  0.0013  -20.2453   0.0000   0.1937
 -14.500  -1.3398   0.00990   0.00642  -0.0530  0.8189  0.0013  -19.9968   0.0000   0.1936
 -14.400  -1.3297   0.00980   0.00633  -0.0530  0.8181  0.0013  -19.7494   0.0000   0.1935
 -14.300  -1.3196   0.00970   0.00623  -0.0529  0.8167  0.0013  -19.5035   0.0000   0.1934
 -14.200  -1.3095   0.00961   0.00613  -0.0529  0.8145  0.0013  -19.2592   0.0000   0.1932
 -14.100  -1.2994   0.00952   0.00604  -0.0528  0.8119  0.0013  -19.0161   0.0000   0.1931
 -14.000  -1.2893   0.00943   0.00595  -0.0528  0.8099  0.0013  -18.7731   0.0000   0.1930
 -13.900  -1.2790   0.00934   0.00585  -0.0528  0.8090  0.0013  -18.5310   0.0000   0.1928
 -13.800  -1.2688   0.00925   0.00576  -0.0528  0.8073  0.0013  -18.2904   0.0000   0.1927
 -13.700  -1.2586   0.00916   0.00567  -0.0528  0.8049  0.0013  -18.0515   0.0000   0.1925
 -13.600  -1.2484   0.00908   0.00559  -0.0527  0.8020  0.0013  -17.8137   0.0000   0.1923
 -13.500  -1.2380   0.00899   0.00550  -0.0527  0.8004  0.0013  -17.5760   0.0000   0.1921
 -13.400  -1.2277   0.00891   0.00541  -0.0527  0.7992  0.0013  -17.3395   0.0000   0.1919
 -13.300  -1.2173   0.00882   0.00533  -0.0527  0.7970  0.0013  -17.1049   0.0000   0.1917
 -13.200  -1.2070   0.00875   0.00524  -0.0527  0.7940  0.0013  -16.8719   0.0000   0.1915
 -13.100  -1.1966   0.00866   0.00516  -0.0527  0.7912  0.0013  -16.6393   0.0000   0.1913
 -13.000  -1.1862   0.00858   0.00508  -0.0527  0.7902  0.0013  -16.4074   0.0000   0.1911
 -12.900  -1.1757   0.00850   0.00500  -0.0527  0.7882  0.0013  -16.1772   0.0000   0.1908
 -12.800  -1.1653   0.00843   0.00492  -0.0527  0.7852  0.0013  -15.9491   0.0000   0.1906
 -12.700  -1.1549   0.00835   0.00484  -0.0527  0.7819  0.0013  -15.7216   0.0000   0.1903
 -12.600  -1.1443   0.00828   0.00476  -0.0528  0.7808  0.0013  -15.4946   0.0000   0.1900
 -12.500  -1.1338   0.00820   0.00468  -0.0528  0.7784  0.0013  -15.2696   0.0000   0.1897
 -12.400  -1.1233   0.00813   0.00461  -0.0528  0.7745  0.0013  -15.0468   0.0000   0.1894
 -12.300  -1.1128   0.00806   0.00453  -0.0528  0.7715  0.0013  -14.8241   0.0000   0.1891
 -12.200  -1.1022   0.00799   0.00446  -0.0528  0.7694  0.0013  -14.6027   0.0000   0.1888
 -12.100  -1.0917   0.00792   0.00439  -0.0528  0.7657  0.0013  -14.3837   0.0000   0.1884
 -12.000  -1.0811   0.00785   0.00431  -0.0528  0.7620  0.0013  -14.1652   0.0000   0.1881
 -11.900  -1.0704   0.00778   0.00424  -0.0528  0.7602  0.0013  -13.9475   0.0000   0.1877
 -11.800  -1.0599   0.00772   0.00417  -0.0528  0.7556  0.0013  -13.7343   0.0000   0.1873
 -11.700  -1.0493   0.00765   0.00410  -0.0529  0.7515  0.0014  -13.5222   0.0000   0.1870
 -11.600  -1.0387   0.00759   0.00403  -0.0529  0.7484  0.0014  -13.3109   0.0000   0.1866
 -11.500  -1.0281   0.00753   0.00396  -0.0529  0.7437  0.0015  -13.1014   0.0000   0.1862
 -11.400  -1.0174   0.00746   0.00389  -0.0529  0.7410  0.0015  -12.8917   0.0000   0.1857
 -11.300  -1.0067   0.00740   0.00383  -0.0529  0.7374  0.0015  -12.6840   0.0000   0.1853
 -11.200  -0.9961   0.00734   0.00376  -0.0530  0.7321  0.0016  -12.4780   0.0000   0.1848
 -11.100  -0.9853   0.00728   0.00369  -0.0530  0.7293  0.0016  -12.2723   0.0000   0.1843
 -11.000  -0.9747   0.00722   0.00363  -0.0530  0.7237  0.0017  -12.0694   0.0000   0.1839
 -10.900  -0.9640   0.00716   0.00357  -0.0530  0.7200  0.0017  -11.8665   0.0000   0.1833
 -10.800  -0.9533   0.00710   0.00350  -0.0530  0.7158  0.0018  -11.6658   0.0000   0.1828
 -10.700  -0.9426   0.00705   0.00344  -0.0531  0.7108  0.0018  -11.4663   0.0000   0.1823
 -10.600  -0.9318   0.00699   0.00338  -0.0531  0.7077  0.0019  -11.2677   0.0000   0.1817
 -10.500  -0.9211   0.00693   0.00332  -0.0531  0.7021  0.0019  -11.0718   0.0000   0.1812
 -10.400  -0.9103   0.00687   0.00325  -0.0531  0.6987  0.0019  -10.8760   0.0000   0.1805
 -10.300  -0.8996   0.00682   0.00319  -0.0532  0.6940  0.0020  -10.6827   0.0000   0.1799
 -10.200  -0.8889   0.00676   0.00313  -0.0532  0.6890  0.0020  -10.4903   0.0000   0.1793
 -10.100  -0.8781   0.00671   0.00307  -0.0532  0.6851  0.0021  -10.2993   0.0000   0.1786
 -10.000  -0.8674   0.00665   0.00301  -0.0532  0.6791  0.0021  -10.1102   0.0000   0.1780
  -9.800  -0.8458   0.00655   0.00289  -0.0533  0.6694  0.0022  -9.7353   0.0000   0.1766
  -9.700  -0.8349   0.00650   0.00284  -0.0533  0.6656  0.0023  -9.5491   0.0000   0.1758
  -9.600  -0.8241   0.00646   0.00279  -0.0534  0.6600  0.0023  -9.3652   0.0000   0.1750
  -9.500  -0.8132   0.00641   0.00273  -0.0534  0.6551  0.0023  -9.1819   0.0000   0.1742
  -9.400  -0.8023   0.00637   0.00269  -0.0534  0.6505  0.0023  -9.0005   0.0000   0.1734
  -9.300  -0.7914   0.00633   0.00264  -0.0535  0.6454  0.0023  -8.8201   0.0000   0.1725
  -9.200  -0.7804   0.00629   0.00259  -0.0536  0.6417  0.0024  -8.6412   0.0000   0.1715
  -9.100  -0.7695   0.00625   0.00255  -0.0536  0.6356  0.0024  -8.4644   0.0000   0.1706
  -8.900  -0.7476   0.00617   0.00246  -0.0537  0.6267  0.0024  -8.1147   0.0000   0.1686
  -8.800  -0.7366   0.00613   0.00241  -0.0538  0.6221  0.0024  -7.9417   0.0000   0.1676
  -8.700  -0.7256   0.00610   0.00237  -0.0538  0.6178  0.0024  -7.7708   0.0000   0.1665
  -8.600  -0.7146   0.00606   0.00233  -0.0539  0.6123  0.0024  -7.6012   0.0000   0.1653
  -8.500  -0.7036   0.00603   0.00229  -0.0539  0.6083  0.0024  -7.4331   0.0000   0.1641
  -8.400  -0.6927   0.00600   0.00225  -0.0540  0.6016  0.0024  -7.2672   0.0000   0.1630
  -8.300  -0.6816   0.00596   0.00221  -0.0540  0.5980  0.0024  -7.1020   0.0000   0.1617
  -8.200  -0.6707   0.00593   0.00217  -0.0541  0.5912  0.0024  -6.9395   0.0000   0.1604
  -8.000  -0.6486   0.00587   0.00210  -0.0542  0.5819  0.0024  -6.6177   0.0000   0.1576
  -7.900  -0.6375   0.00584   0.00206  -0.0542  0.5769  0.0024  -6.4588   0.0000   0.1561
  -7.800  -0.6265   0.00581   0.00202  -0.0543  0.5720  0.0024  -6.3022   0.0000   0.1546
  -7.700  -0.6154   0.00578   0.00199  -0.0544  0.5663  0.0024  -6.1468   0.0000   0.1530
  -7.600  -0.6044   0.00575   0.00195  -0.0544  0.5618  0.0024  -5.9931   0.0000   0.1514
  -7.500  -0.5933   0.00573   0.00192  -0.0545  0.5554  0.0024  -5.8411   0.0000   0.1497
  -7.400  -0.5822   0.00570   0.00188  -0.0545  0.5507  0.0024  -5.6906   0.0000   0.1479
  -7.300  -0.5712   0.00568   0.00185  -0.0546  0.5437  0.0024  -5.5420   0.0000   0.1460
  -7.200  -0.5602   0.00565   0.00182  -0.0546  0.5387  0.0025  -5.3952   0.0000   0.1441
  -7.100  -0.5491   0.00563   0.00178  -0.0547  0.5321  0.0026  -5.2501   0.0000   0.1421
  -7.000  -0.5380   0.00560   0.00175  -0.0548  0.5271  0.0027  -5.1066   0.0000   0.1400
  -6.900  -0.5270   0.00558   0.00172  -0.0548  0.5203  0.0029  -4.9647   0.0000   0.1378
  -6.800  -0.5159   0.00556   0.00169  -0.0549  0.5153  0.0030  -4.8245   0.0000   0.1355
  -6.700  -0.5048   0.00553   0.00165  -0.0549  0.5092  0.0032  -4.6858   0.0000   0.1331
  -6.600  -0.4938   0.00550   0.00162  -0.0550  0.5051  0.0033  -4.5487   0.0000   0.1306
  -6.500  -0.4827   0.00548   0.00159  -0.0550  0.4981  0.0035  -4.4136   0.0000   0.1280
  -6.400  -0.4716   0.00545   0.00156  -0.0551  0.4937  0.0036  -4.2795   0.0000   0.1252
  -6.300  -0.4606   0.00543   0.00153  -0.0551  0.4863  0.0037  -4.1473   0.0000   0.1223
  -6.200  -0.4495   0.00541   0.00150  -0.0552  0.4811  0.0038  -4.0163   0.0000   0.1193
  -6.100  -0.4384   0.00539   0.00147  -0.0552  0.4739  0.0038  -3.8870   0.0000   0.1160
  -6.000  -0.4273   0.00538   0.00145  -0.0553  0.4683  0.0038  -3.7594   0.0000   0.1127
  -5.900  -0.4161   0.00536   0.00142  -0.0554  0.4620  0.0038  -3.6330   0.0000   0.1090
  -5.800  -0.4050   0.00535   0.00140  -0.0554  0.4560  0.0038  -3.5088   0.0000   0.1053
  -5.700  -0.3938   0.00533   0.00138  -0.0555  0.4500  0.0039  -3.3869   0.0000   0.1012
  -5.600  -0.3828   0.00533   0.00136  -0.0556  0.4430  0.0039  -3.2775   0.0000   0.0970
  -5.400  -0.3605   0.00530   0.00132  -0.0557  0.4299  0.0039  -3.0619   0.0000   0.0877
  -5.300  -0.3493   0.00528   0.00129  -0.0558  0.4262  0.0039  -2.9555   0.0000   0.0824
  -5.200  -0.3382   0.00528   0.00127  -0.0558  0.4183  0.0039  -2.8515   0.0000   0.0770
  -5.000  -0.3158   0.00525   0.00123  -0.0560  0.4092  0.0040  -2.6464   0.0000   0.0648
  -4.900  -0.3045   0.00523   0.00121  -0.0560  0.4051  0.0042  -2.5459   0.0000   0.0579
  -4.800  -0.2932   0.00521   0.00119  -0.0561  0.4028  0.0044  -2.4467   0.0000   0.0504
  -4.700  -0.2820   0.00520   0.00117  -0.0562  0.3970  0.0047  -2.3495   0.0000   0.0426
  -4.600  -0.2707   0.00518   0.00115  -0.0563  0.3935  0.0049  -2.2531   0.0000   0.0339
  -4.500  -0.2594   0.00516   0.00113  -0.0564  0.3919  0.0052  -2.1580   0.0000   0.0244
  -4.400  -0.2483   0.00514   0.00111  -0.0564  0.3876  0.0054  -2.0648   0.0000   0.0142
  -4.300  -0.2370   0.00513   0.00109  -0.0565  0.3839  0.0057  -1.9723   0.0000   0.0029
  -4.200  -0.2256   0.00510   0.00107  -0.0566  0.3819  0.0065  -1.8813   0.0000  -0.0097
  -4.100  -0.2144   0.00508   0.00105  -0.0567  0.3801  0.0074  -1.7921   0.0000  -0.0234
  -4.000  -0.2032   0.00507   0.00103  -0.0568  0.3751  0.0077  -1.7043   0.0000  -0.0384
  -3.900  -0.1919   0.00506   0.00102  -0.0569  0.3713  0.0081  -1.6173   0.0000  -0.0556
  -3.800  -0.1806   0.00503   0.00100  -0.0570  0.3692  0.0093  -1.5321   0.0000  -0.0749
  -3.700  -0.1695   0.00503   0.00098  -0.0570  0.3630  0.0105  -1.4489   0.0000  -0.0960
  -3.500  -0.1471   0.00500   0.00095  -0.0571  0.3547  0.0128  -1.3025   0.0000  -0.1490
  -3.400  -0.1358   0.00499   0.00093  -0.0572  0.3489  0.0139  -1.2314   0.0000  -0.1822
  -3.300  -0.1247   0.00498   0.00092  -0.0573  0.3447  0.0156  -1.1620   0.0000  -0.2208
  -3.100  -0.1024   0.00496   0.00090  -0.0574  0.3324  0.0193  -1.0263   0.0000  -0.3230
  -2.900  -0.0802   0.00495   0.00088  -0.0575  0.3189  0.0227  -0.8948   0.0000  -0.4820
  -2.700  -0.0579   0.00494   0.00085  -0.0576  0.3076  0.0279  -0.7676   0.0000  -0.7647
  -2.600  -0.0466   0.00493   0.00084  -0.0577  0.3040  0.0302  -0.7059   0.0000  -1.0103
  -2.500  -0.0356   0.00492   0.00083  -0.0577  0.2957  0.0340  -0.6582   0.0000  -1.3988
  -2.400  -0.0243   0.00492   0.00082  -0.0578  0.2917  0.0347  -0.6169   0.0000  -2.1653
  -2.300  -0.0132   0.00492   0.00082  -0.0579  0.2844  0.0372  -0.5783   0.0000  -4.2099
  -2.200  -0.0020   0.00492   0.00081  -0.0579  0.2801  0.0392  -0.5440   0.0000  -29.1990
  -2.100   0.0091   0.00492   0.00080  -0.0580  0.2735  0.0431  -0.5127   0.0000   6.6781
  -2.000   0.0202   0.00492   0.00080  -0.0580  0.2671  0.0450  -0.4887   0.0000   3.1521
  -1.900   0.0315   0.00491   0.00079  -0.0581  0.2622  0.0489  -0.4650   0.0000   2.1190
  -1.800   0.0424   0.00491   0.00079  -0.0581  0.2541  0.0547  -0.4418   0.0000   1.6353
  -1.700   0.0535   0.00488   0.00078  -0.0581  0.2513  0.0655  -0.4187   0.0000   1.3487
  -1.600   0.0645   0.00487   0.00077  -0.0582  0.2455  0.0721  -0.3972   0.0000   1.1606
  -1.500   0.0759   0.00487   0.00077  -0.0583  0.2428  0.0746  -0.3882   0.0000   1.0246
  -1.400   0.0872   0.00486   0.00076  -0.0584  0.2409  0.0784  -0.3932   0.0000   0.9248
  -1.300   0.0983   0.00485   0.00076  -0.0584  0.2369  0.0849  -0.3982   0.0000   0.8485
  -1.200   0.1096   0.00483   0.00075  -0.0585  0.2337  0.0917  -0.4033   0.0000   0.7873
  -1.100   0.1209   0.00483   0.00075  -0.0586  0.2318  0.0965  -0.4087   0.0000   0.7374
  -1.000   0.1319   0.00483   0.00076  -0.0586  0.2243  0.1007  -0.4144   0.0000   0.6965
  -0.900   0.1431   0.00483   0.00075  -0.0587  0.2201  0.1067  -0.4202   0.0000   0.6618
  -0.800   0.1541   0.00483   0.00075  -0.0587  0.2138  0.1142  -0.4261   0.0000   0.6322
  -0.700   0.1652   0.00483   0.00076  -0.0588  0.2085  0.1206  -0.4322   0.0000   0.6065
  -0.600   0.1765   0.00483   0.00076  -0.0589  0.2040  0.1250  -0.4384   0.0000   0.5840
  -0.500   0.1876   0.00484   0.00076  -0.0589  0.2002  0.1293  -0.4446   0.0000   0.5642
  -0.400   0.1989   0.00485   0.00076  -0.0590  0.1951  0.1302  -0.4514   0.0000   0.5465
  -0.300   0.2102   0.00486   0.00077  -0.0591  0.1913  0.1328  -0.4583   0.0000   0.5308
  -0.200   0.2214   0.00486   0.00077  -0.0591  0.1861  0.1370  -0.4653   0.0000   0.5166
  -0.100   0.2326   0.00488   0.00078  -0.0592  0.1813  0.1385  -0.4722   0.0000   0.5039
   0.100   0.2549   0.00490   0.00079  -0.0593  0.1714  0.1460  -0.4877   0.0000   0.4817
   0.200   0.2662   0.00490   0.00079  -0.0594  0.1684  0.1520  -0.4955   0.0000   0.4720
   0.300   0.2774   0.00489   0.00079  -0.0595  0.1669  0.1612  -0.5033   0.0000   0.4631
   0.400   0.2884   0.00489   0.00080  -0.0595  0.1611  0.1710  -0.5114   0.0000   0.4549
   0.500   0.2996   0.00489   0.00081  -0.0596  0.1575  0.1792  -0.5197   0.0000   0.4473
   0.600   0.3107   0.00490   0.00082  -0.0596  0.1512  0.1833  -0.5285   0.0000   0.4402
   0.700   0.3217   0.00493   0.00083  -0.0597  0.1442  0.1880  -0.5382   0.0000   0.4336
   0.900   0.3441   0.00496   0.00085  -0.0598  0.1351  0.1933  -0.5583   0.0000   0.4217
   1.000   0.3554   0.00496   0.00085  -0.0599  0.1344  0.1985  -0.5686   0.0000   0.4164
   1.100   0.3666   0.00497   0.00086  -0.0600  0.1320  0.2022  -0.5791   0.0000   0.4113
   1.200   0.3778   0.00497   0.00087  -0.0600  0.1292  0.2107  -0.5898   0.0000   0.4066
   1.300   0.3891   0.00497   0.00087  -0.0601  0.1274  0.2176  -0.6009   0.0000   0.4021
   1.400   0.4004   0.00497   0.00088  -0.0602  0.1263  0.2254  -0.6122   0.0000   0.3979
   1.500   0.4114   0.00498   0.00090  -0.0603  0.1221  0.2325  -0.6250   0.0000   0.3938
   1.700   0.4336   0.00500   0.00092  -0.0604  0.1128  0.2476  -0.6549   0.0000   0.3864
   1.800   0.4445   0.00503   0.00094  -0.0604  0.1059  0.2528  -0.6698   0.0000   0.3829
   1.900   0.4554   0.00505   0.00095  -0.0604  0.0996  0.2609  -0.6851   0.0000   0.3796
   2.000   0.4663   0.00508   0.00097  -0.0604  0.0935  0.2674  -0.7019   0.0000   0.3765
   2.100   0.4774   0.00509   0.00099  -0.0605  0.0896  0.2748  -0.7177   0.0000   0.3735
   2.200   0.4885   0.00510   0.00100  -0.0605  0.0864  0.2839  -0.7360   0.0000   0.3707
   2.300   0.4996   0.00511   0.00101  -0.0606  0.0841  0.2921  -0.7552   0.0000   0.3679
   2.400   0.5106   0.00514   0.00104  -0.0606  0.0784  0.2968  -0.7740   0.0000   0.3653
   2.500   0.5215   0.00516   0.00106  -0.0606  0.0736  0.3043  -0.7930   0.0000   0.3628
   2.600   0.5327   0.00519   0.00107  -0.0607  0.0702  0.3069  -0.8143   0.0000   0.3604
   2.800   0.5548   0.00525   0.00112  -0.0608  0.0609  0.3130  -0.8610   0.0000   0.3558
   2.900   0.5660   0.00527   0.00113  -0.0608  0.0600  0.3150  -0.8850   0.0000   0.3537
   3.000   0.5771   0.00531   0.00116  -0.0609  0.0562  0.3169  -0.9086   0.0000   0.3517
   3.100   0.5882   0.00534   0.00117  -0.0609  0.0536  0.3180  -0.9331   0.0000   0.3497
   3.200   0.5993   0.00536   0.00120  -0.0610  0.0500  0.3234  -0.9597   0.0000   0.3478
   3.300   0.6101   0.00539   0.00122  -0.0610  0.0457  0.3291  -0.9865   0.0000   0.3459
   3.400   0.6211   0.00541   0.00125  -0.0610  0.0436  0.3390  -1.0187   0.0000   0.3441
   3.500   0.6322   0.00543   0.00127  -0.0611  0.0406  0.3457  -1.0556   0.0000   0.3424
   3.600   0.6432   0.00545   0.00129  -0.0611  0.0392  0.3537  -1.0929   0.0000   0.3407
   3.700   0.6541   0.00547   0.00131  -0.0612  0.0369  0.3633  -1.1364   0.0000   0.3391
   3.800   0.6652   0.00547   0.00133  -0.0612  0.0360  0.3740  -1.1887   0.0000   0.3375
   3.900   0.6761   0.00549   0.00136  -0.0613  0.0342  0.3839  -1.2412   0.0000   0.3360
   4.000   0.6871   0.00552   0.00139  -0.0613  0.0315  0.3910  -1.2945   0.0000   0.3345
   4.100   0.6979   0.00555   0.00142  -0.0613  0.0276  0.3988  -1.3510   0.0000   0.3331
   4.300   0.7195   0.00562   0.00149  -0.0613  0.0215  0.4174  -1.4699   0.0000   0.3302
   4.400   0.7305   0.00564   0.00151  -0.0613  0.0205  0.4258  -1.5314   0.0000   0.3289
   4.500   0.7414   0.00566   0.00155  -0.0614  0.0191  0.4349  -1.5930   0.0000   0.3276
   4.600   0.7523   0.00568   0.00157  -0.0614  0.0177  0.4454  -1.6556   0.0000   0.3264
   4.800   0.7741   0.00572   0.00163  -0.0614  0.0155  0.4660  -1.7847   0.0000   0.3240
   4.900   0.7851   0.00575   0.00166  -0.0615  0.0144  0.4730  -1.8567   0.0000   0.3228
   5.000   0.7959   0.00578   0.00169  -0.0615  0.0135  0.4806  -1.9358   0.0000   0.3217
   5.100   0.8068   0.00580   0.00173  -0.0615  0.0124  0.4883  -2.0164   0.0000   0.3206
   5.200   0.8179   0.00583   0.00175  -0.0616  0.0120  0.4933  -2.0986   0.0000   0.3195
   5.300   0.8288   0.00585   0.00179  -0.0616  0.0116  0.5001  -2.1815   0.0000   0.3185
   5.400   0.8397   0.00589   0.00183  -0.0616  0.0106  0.5044  -2.2649   0.0000   0.3175
   5.500   0.8506   0.00593   0.00186  -0.0617  0.0096  0.5094  -2.3499   0.0000   0.3165
   5.700   0.8724   0.00600   0.00194  -0.0617  0.0087  0.5175  -2.5227   0.0000   0.3145
   5.800   0.8834   0.00604   0.00197  -0.0618  0.0081  0.5222  -2.6108   0.0000   0.3136
   5.900   0.8943   0.00607   0.00200  -0.0618  0.0077  0.5270  -2.7001   0.0000   0.3127
   6.000   0.9053   0.00610   0.00204  -0.0619  0.0074  0.5302  -2.7908   0.0000   0.3118
   6.100   0.9162   0.00613   0.00207  -0.0619  0.0074  0.5377  -2.8822   0.0000   0.3109
   6.200   0.9271   0.00616   0.00211  -0.0619  0.0073  0.5415  -2.9750   0.0000   0.3100
   6.300   0.9380   0.00619   0.00214  -0.0620  0.0072  0.5500  -3.0682   0.0000   0.3092
   6.400   0.9488   0.00623   0.00218  -0.0620  0.0069  0.5546  -3.1625   0.0000   0.3083
   6.500   0.9595   0.00626   0.00222  -0.0620  0.0065  0.5626  -3.2571   0.0000   0.3075
   6.600   0.9703   0.00630   0.00226  -0.0620  0.0062  0.5699  -3.3531   0.0000   0.3067
   6.700   0.9811   0.00633   0.00230  -0.0620  0.0058  0.5761  -3.4503   0.0000   0.3059
   6.800   0.9919   0.00636   0.00234  -0.0620  0.0055  0.5843  -3.5527   0.0000   0.3051
   6.900   1.0028   0.00640   0.00238  -0.0621  0.0055  0.5892  -3.6616   0.0000   0.3043
   7.000   1.0135   0.00643   0.00242  -0.0621  0.0055  0.5973  -3.7714   0.0000   0.3036
   7.100   1.0243   0.00646   0.00246  -0.0621  0.0054  0.6027  -3.8827   0.0000   0.3029
   7.200   1.0350   0.00650   0.00250  -0.0621  0.0053  0.6098  -3.9946   0.0000   0.3021
   7.300   1.0457   0.00655   0.00255  -0.0621  0.0050  0.6157  -4.1074   0.0000   0.3014
   7.400   1.0563   0.00659   0.00260  -0.0621  0.0048  0.6220  -4.2209   0.0000   0.3006
   7.500   1.0669   0.00664   0.00265  -0.0621  0.0044  0.6274  -4.3360   0.0000   0.2999
   7.600   1.0776   0.00668   0.00270  -0.0620  0.0041  0.6333  -4.4523   0.0000   0.2992
   7.700   1.0883   0.00673   0.00275  -0.0621  0.0039  0.6372  -4.5707   0.0000   0.2985
   7.800   1.0989   0.00677   0.00279  -0.0620  0.0038  0.6432  -4.6899   0.0000   0.2979
   7.900   1.1096   0.00681   0.00284  -0.0621  0.0038  0.6463  -4.8106   0.0000   0.2972
   8.000   1.1202   0.00686   0.00289  -0.0620  0.0037  0.6520  -4.9321   0.0000   0.2965
   8.100   1.1308   0.00691   0.00294  -0.0620  0.0036  0.6559  -5.0541   0.0000   0.2959
   8.200   1.1413   0.00698   0.00300  -0.0620  0.0034  0.6575  -5.1772   0.0000   0.2952
   8.300   1.1518   0.00704   0.00306  -0.0620  0.0032  0.6611  -5.3014   0.0000   0.2946
   8.400   1.1623   0.00709   0.00311  -0.0619  0.0030  0.6652  -5.4268   0.0000   0.2939
   8.500   1.1729   0.00714   0.00317  -0.0619  0.0029  0.6679  -5.5539   0.0000   0.2933
   8.600   1.1835   0.00720   0.00322  -0.0619  0.0027  0.6698  -5.6823   0.0000   0.2927
   8.700   1.1940   0.00725   0.00327  -0.0619  0.0026  0.6745  -5.8116   0.0000   0.2921
   8.800   1.2045   0.00730   0.00333  -0.0618  0.0026  0.6779  -5.9448   0.0000   0.2915
   8.900   1.2150   0.00735   0.00338  -0.0618  0.0025  0.6797  -6.0875   0.0000   0.2909
   9.000   1.2256   0.00741   0.00343  -0.0618  0.0025  0.6814  -6.2316   0.0000   0.2903
   9.100   1.2361   0.00746   0.00349  -0.0618  0.0025  0.6854  -6.3767   0.0000   0.2897
   9.200   1.2465   0.00752   0.00354  -0.0617  0.0025  0.6885  -6.5231   0.0000   0.2891
   9.300   1.2570   0.00757   0.00360  -0.0617  0.0025  0.6905  -6.6709   0.0000   0.2885
   9.400   1.2674   0.00763   0.00365  -0.0617  0.0025  0.6916  -6.8202   0.0000   0.2880
   9.500   1.2778   0.00769   0.00371  -0.0617  0.0025  0.6949  -6.9706   0.0000   0.2874
   9.600   1.2882   0.00774   0.00377  -0.0616  0.0025  0.6982  -7.1220   0.0000   0.2868
   9.700   1.2986   0.00780   0.00383  -0.0616  0.0025  0.7007  -7.2748   0.0000   0.2863
   9.800   1.3089   0.00786   0.00388  -0.0615  0.0025  0.7020  -7.4290   0.0000   0.2857
   9.900   1.3193   0.00793   0.00395  -0.0615  0.0025  0.7033  -7.5845   0.0000   0.2852
  10.000   1.3296   0.00799   0.00401  -0.0614  0.0025  0.7065  -7.7410   0.0000   0.2846
  10.100   1.3398   0.00805   0.00407  -0.0614  0.0025  0.7096  -7.8985   0.0000   0.2841
  10.200   1.3500   0.00811   0.00413  -0.0613  0.0025  0.7119  -8.0573   0.0000   0.2835
  10.300   1.3603   0.00818   0.00419  -0.0612  0.0025  0.7130  -8.2175   0.0000   0.2830
  10.400   1.3705   0.00824   0.00426  -0.0612  0.0024  0.7136  -8.3789   0.0000   0.2825
  10.500   1.3806   0.00831   0.00433  -0.0611  0.0024  0.7160  -8.5412   0.0000   0.2819
  10.600   1.3907   0.00838   0.00440  -0.0610  0.0024  0.7188  -8.7041   0.0000   0.2814
  10.700   1.4006   0.00846   0.00448  -0.0609  0.0023  0.7212  -8.8676   0.0000   0.2808
  10.800   1.4106   0.00854   0.00455  -0.0608  0.0022  0.7230  -9.0319   0.0000   0.2803
  10.900   1.4204   0.00862   0.00464  -0.0606  0.0022  0.7241  -9.1971   0.0000   0.2798
  11.000   1.4303   0.00871   0.00472  -0.0605  0.0021  0.7251  -9.3634   0.0000   0.2792
  11.100   1.4401   0.00879   0.00480  -0.0604  0.0020  0.7280  -9.5307   0.0000   0.2787
  11.200   1.4499   0.00887   0.00488  -0.0602  0.0019  0.7306  -9.6992   0.0000   0.2782
  11.300   1.4597   0.00895   0.00496  -0.0601  0.0019  0.7327  -9.8691   0.0000   0.2776
  11.400   1.4696   0.00903   0.00504  -0.0600  0.0018  0.7341  -10.0404   0.0000   0.2771
  11.500   1.4794   0.00912   0.00512  -0.0599  0.0017  0.7347  -10.2130   0.0000   0.2766
  11.600   1.4891   0.00920   0.00520  -0.0597  0.0017  0.7352  -10.3867   0.0000   0.2761
  11.700   1.4989   0.00928   0.00528  -0.0596  0.0016  0.7356  -10.5694   0.0000   0.2755
  11.800   1.5086   0.00936   0.00536  -0.0594  0.0015  0.7375  -10.7571   0.0000   0.2750
  11.900   1.5183   0.00945   0.00544  -0.0593  0.0015  0.7395  -10.9459   0.0000   0.2745
  12.000   1.5279   0.00953   0.00552  -0.0591  0.0015  0.7413  -11.1359   0.0000   0.2740
  12.100   1.5375   0.00961   0.00561  -0.0590  0.0015  0.7428  -11.3273   0.0000   0.2735
  12.200   1.5471   0.00969   0.00569  -0.0588  0.0015  0.7441  -11.5199   0.0000   0.2730
  12.300   1.5567   0.00978   0.00577  -0.0586  0.0015  0.7451  -11.7137   0.0000   0.2725
  12.400   1.5662   0.00986   0.00585  -0.0585  0.0015  0.7457  -11.9086   0.0000   0.2719
  12.500   1.5756   0.00995   0.00594  -0.0583  0.0015  0.7462  -12.1045   0.0000   0.2714
  12.600   1.5851   0.01004   0.00603  -0.0581  0.0015  0.7474  -12.3014   0.0000   0.2709
  12.700   1.5944   0.01012   0.00611  -0.0579  0.0015  0.7496  -12.4991   0.0000   0.2704
  12.800   1.6037   0.01021   0.00620  -0.0577  0.0015  0.7516  -12.6976   0.0000   0.2699
  12.900   1.6130   0.01030   0.00629  -0.0575  0.0015  0.7532  -12.8971   0.0000   0.2694
  13.000   1.6222   0.01039   0.00638  -0.0573  0.0015  0.7546  -13.0976   0.0000   0.2689
  13.100   1.6313   0.01049   0.00648  -0.0570  0.0014  0.7556  -13.2990   0.0000   0.2683
  13.200   1.6404   0.01058   0.00657  -0.0568  0.0014  0.7561  -13.5013   0.0000   0.2678
  13.300   1.6495   0.01068   0.00666  -0.0566  0.0014  0.7565  -13.7045   0.0000   0.2673
  13.400   1.6585   0.01077   0.00676  -0.0563  0.0014  0.7568  -13.9084   0.0000   0.2668
  13.500   1.6674   0.01087   0.00686  -0.0560  0.0014  0.7571  -14.1131   0.0000   0.2663
  13.600   1.6763   0.01097   0.00696  -0.0558  0.0014  0.7585  -14.3182   0.0000   0.2657
  13.700   1.6845   0.01107   0.00705  -0.0554  0.0014  0.7602  -14.5186   0.0000   0.2652
  13.800   1.6919   0.01115   0.00714  -0.0548  0.0014  0.7617  -14.7121   0.0000   0.2645
  13.900   1.6996   0.01125   0.00724  -0.0543  0.0014  0.7630  -14.9093   0.0000   0.2639
  14.000   1.7074   0.01135   0.00734  -0.0538  0.0014  0.7642  -15.1086   0.0000   0.2632
  14.100   1.7152   0.01146   0.00745  -0.0533  0.0014  0.7653  -15.3087   0.0000   0.2626
  14.200   1.7228   0.01157   0.00756  -0.0528  0.0014  0.7661  -15.5091   0.0000   0.2620
  14.300   1.7304   0.01169   0.00768  -0.0522  0.0014  0.7667  -15.7096   0.0000   0.2614
  14.400   1.7378   0.01181   0.00780  -0.0517  0.0014  0.7671  -15.9097   0.0000   0.2608
  14.500   1.7451   0.01194   0.00793  -0.0511  0.0013  0.7674  -16.1090   0.0000   0.2601
  14.600   1.7522   0.01207   0.00806  -0.0506  0.0013  0.7676  -16.3075   0.0000   0.2595
  14.700   1.7592   0.01221   0.00820  -0.0500  0.0013  0.7688  -16.5059   0.0000   0.2588
  14.800   1.7661   0.01235   0.00835  -0.0494  0.0012  0.7704  -16.7036   0.0000   0.2582
  14.900   1.7728   0.01250   0.00850  -0.0487  0.0012  0.7718  -16.9015   0.0000   0.2575
  15.000   1.7796   0.01264   0.00865  -0.0481  0.0012  0.7731  -17.0997   0.0000   0.2569
  15.100   1.7862   0.01279   0.00880  -0.0475  0.0012  0.7743  -17.2983   0.0000   0.2563
  15.200   1.7928   0.01295   0.00896  -0.0469  0.0011  0.7753  -17.4974   0.0000   0.2556
  15.300   1.7995   0.01310   0.00911  -0.0462  0.0011  0.7762  -17.6973   0.0000   0.2550
  15.400   1.8060   0.01326   0.00927  -0.0456  0.0011  0.7769  -17.8981   0.0000   0.2543
  15.500   1.8126   0.01342   0.00943  -0.0450  0.0010  0.7774  -18.0995   0.0000   0.2537
  15.600   1.8191   0.01358   0.00959  -0.0444  0.0010  0.7777  -18.3019   0.0000   0.2531
  15.700   1.8256   0.01374   0.00976  -0.0438  0.0010  0.7780  -18.5051   0.0000   0.2525
  15.800   1.8320   0.01390   0.00992  -0.0432  0.0010  0.7782  -18.7080   0.0000   0.2519
  15.900   1.8385   0.01407   0.01009  -0.0426  0.0009  0.7790  -18.9125   0.0000   0.2512
  16.000   1.8448   0.01424   0.01027  -0.0419  0.0009  0.7803  -19.1169   0.0000   0.2506
  16.100   1.8511   0.01441   0.01044  -0.0413  0.0009  0.7818  -19.3216   0.0000   0.2500
  16.200   1.8573   0.01458   0.01062  -0.0407  0.0009  0.7830  -19.5259   0.0000   0.2494
  16.300   1.8636   0.01476   0.01080  -0.0401  0.0008  0.7841  -19.7316   0.0000   0.2488
  16.400   1.8697   0.01495   0.01099  -0.0395  0.0008  0.7852  -19.9376   0.0000   0.2482
  16.500   1.8757   0.01513   0.01118  -0.0389  0.0008  0.7861  -20.1428   0.0000   0.2476
  16.600   1.8817   0.01532   0.01137  -0.0382  0.0008  0.7869  -20.3486   0.0000   0.2470
  16.700   1.8877   0.01552   0.01157  -0.0376  0.0007  0.7875  -20.5543   0.0000   0.2464
  16.800   1.8937   0.01572   0.01177  -0.0370  0.0007  0.7879  -20.7623   0.0000   0.2458
  16.900   1.8995   0.01592   0.01198  -0.0364  0.0007  0.7882  -20.9689   0.0000   0.2452
  17.000   1.9053   0.01613   0.01219  -0.0358  0.0007  0.7885  -21.1763   0.0000   0.2446
  17.100   1.9109   0.01634   0.01241  -0.0351  0.0007  0.7887  -21.3815   0.0000   0.2440
  17.200   1.9166   0.01656   0.01263  -0.0345  0.0007  0.7893  -21.5891   0.0000   0.2434
  17.300   1.9223   0.01678   0.01285  -0.0339  0.0007  0.7907  -21.7972   0.0000   0.2428
  17.400   1.9278   0.01700   0.01309  -0.0333  0.0007  0.7922  -22.0042   0.0000   0.2422
  17.500   1.9334   0.01723   0.01332  -0.0327  0.0007  0.7935  -22.2137   0.0000   0.2416
  17.600   1.9386   0.01747   0.01356  -0.0320  0.0007  0.7946  -22.4187   0.0000   0.2410
  17.700   1.9439   0.01771   0.01381  -0.0314  0.0007  0.7957  -22.6255   0.0000   0.2404
  17.800   1.9490   0.01795   0.01406  -0.0307  0.0007  0.7967  -22.8310   0.0000   0.2398
  17.900   1.9541   0.01821   0.01432  -0.0301  0.0007  0.7975  -23.0370   0.0000   0.2393
  18.000   1.9593   0.01847   0.01458  -0.0295  0.0007  0.7981  -23.2451   0.0000   0.2387
  18.100   1.9642   0.01874   0.01486  -0.0288  0.0007  0.7986  -23.4496   0.0000   0.2381
  18.200   1.9693   0.01901   0.01514  -0.0282  0.0007  0.7989  -23.6582   0.0000   0.2375
  18.400   1.9786   0.01958   0.01572  -0.0269  0.0007  0.8006  -24.0653   0.0000   0.2363
  18.500   1.9832   0.01987   0.01602  -0.0263  0.0007  0.8023  -24.2695   0.0000   0.2358
  18.600   1.9875   0.02018   0.01633  -0.0256  0.0007  0.8038  -24.4705   0.0000   0.2352
  18.700   1.9922   0.02048   0.01664  -0.0250  0.0007  0.8052  -24.6767   0.0000   0.2346
  18.800   1.9964   0.02081   0.01698  -0.0243  0.0007  0.8064  -24.8767   0.0000   0.2340
  18.900   2.0007   0.02113   0.01731  -0.0237  0.0007  0.8074  -25.0806   0.0000   0.2334
  19.000   2.0050   0.02147   0.01765  -0.0231  0.0007  0.8082  -25.2829   0.0000   0.2329
  19.100   2.0089   0.02182   0.01801  -0.0224  0.0007  0.8088  -25.4825   0.0000   0.2323
  19.200   2.0131   0.02216   0.01836  -0.0218  0.0007  0.8092  -25.6850   0.0000   0.2317
  19.300   2.0165   0.02253   0.01874  -0.0211  0.0007  0.8101  -25.8780   0.0000   0.2311
  19.400   2.0204   0.02289   0.01911  -0.0205  0.0007  0.8122  -26.0785   0.0000   0.2306
  19.500   2.0238   0.02328   0.01951  -0.0199  0.0007  0.8141  -26.2727   0.0000   0.2300
  19.600   2.0274   0.02367   0.01991  -0.0192  0.0007  0.8157  -26.4694   0.0000   0.2294
  19.700   2.0309   0.02407   0.02031  -0.0186  0.0007  0.8171  -26.6664   0.0000   0.2288
  19.800   2.0341   0.02450   0.02075  -0.0180  0.0007  0.8182  -26.8582   0.0000   0.2283
  19.900   2.0377   0.02491   0.02117  -0.0174  0.0007  0.8190  -27.0570   0.0000   0.2277
  20.000   2.0405   0.02537   0.02164  -0.0168  0.0007  0.8196  -27.2448   0.0000   0.2272


