xflr5 v6.32

 Calculated polar for: finalfoil mod1

 1 1 Reynolds number fixed          Mach number fixed         

 xtrf =   1.000 (top)        1.000 (bottom)
 Mach =   0.000     Re =    20.000 e 6     Ncrit =   9.000

  alpha     CL        CD       CDp       Cm    Top Xtr Bot Xtr   Cpmin    Chinge    XCp    
 ------- -------- --------- --------- -------- ------- ------- -------- --------- ---------
 -15.000  -1.3441   0.01399   0.01040  -0.0589  0.9003  0.0013  -20.1481   0.0000   0.1885
 -14.900  -1.3356   0.01382   0.01021  -0.0587  0.8988  0.0013  -19.9253   0.0000   0.1885
 -14.800  -1.3269   0.01365   0.01003  -0.0585  0.8973  0.0013  -19.7027   0.0000   0.1886
 -14.700  -1.3182   0.01348   0.00985  -0.0583  0.8955  0.0013  -19.4805   0.0000   0.1886
 -14.600  -1.3093   0.01332   0.00968  -0.0581  0.8943  0.0013  -19.2574   0.0000   0.1886
 -14.500  -1.3004   0.01316   0.00951  -0.0579  0.8932  0.0013  -19.0342   0.0000   0.1886
 -14.400  -1.2913   0.01300   0.00934  -0.0578  0.8918  0.0013  -18.8115   0.0000   0.1885
 -14.300  -1.2823   0.01284   0.00917  -0.0576  0.8903  0.0013  -18.5894   0.0000   0.1885
 -14.200  -1.2732   0.01269   0.00901  -0.0575  0.8886  0.0013  -18.3680   0.0000   0.1885
 -14.100  -1.2640   0.01254   0.00885  -0.0574  0.8870  0.0013  -18.1467   0.0000   0.1884
 -14.000  -1.2546   0.01239   0.00869  -0.0572  0.8860  0.0013  -17.9250   0.0000   0.1883
 -13.800  -1.2362   0.01207   0.00834  -0.0570  0.8835  0.0013  -17.5053   0.0000   0.1882
 -13.700  -1.2270   0.01190   0.00815  -0.0568  0.8821  0.0013  -17.3087   0.0000   0.1881
 -13.600  -1.2179   0.01172   0.00796  -0.0567  0.8805  0.0014  -17.1177   0.0000   0.1880
 -13.500  -1.2088   0.01153   0.00774  -0.0565  0.8791  0.0014  -16.9447   0.0000   0.1880
 -13.400  -1.2016   0.01114   0.00732  -0.0561  0.8782  0.0019  -16.9051   0.0000   0.1882
 -13.300  -1.1919   0.01100   0.00718  -0.0560  0.8771  0.0020  -16.6848   0.0000   0.1880
 -13.200  -1.1821   0.01087   0.00705  -0.0559  0.8760  0.0020  -16.4638   0.0000   0.1879
 -13.100  -1.1723   0.01074   0.00692  -0.0559  0.8747  0.0021  -16.2428   0.0000   0.1877
 -13.000  -1.1624   0.01063   0.00680  -0.0558  0.8733  0.0021  -16.0219   0.0000   0.1875
 -12.900  -1.1525   0.01051   0.00668  -0.0558  0.8717  0.0021  -15.8014   0.0000   0.1872
 -12.800  -1.1424   0.01040   0.00656  -0.0557  0.8707  0.0022  -15.5806   0.0000   0.1870
 -12.700  -1.1323   0.01029   0.00645  -0.0557  0.8698  0.0022  -15.3603   0.0000   0.1867
 -12.600  -1.1221   0.01018   0.00634  -0.0557  0.8688  0.0022  -15.1410   0.0000   0.1864
 -12.500  -1.1120   0.01008   0.00624  -0.0557  0.8676  0.0023  -14.9227   0.0000   0.1861
 -12.400  -1.1018   0.00998   0.00613  -0.0556  0.8664  0.0023  -14.7056   0.0000   0.1858
 -12.300  -1.0916   0.00988   0.00603  -0.0556  0.8650  0.0023  -14.4896   0.0000   0.1855
 -12.200  -1.0813   0.00979   0.00593  -0.0556  0.8635  0.0023  -14.2745   0.0000   0.1852
 -12.100  -1.0709   0.00969   0.00583  -0.0556  0.8626  0.0023  -14.0599   0.0000   0.1848
 -12.000  -1.0606   0.00959   0.00574  -0.0556  0.8618  0.0023  -13.8463   0.0000   0.1845
 -11.900  -1.0501   0.00950   0.00564  -0.0556  0.8608  0.0023  -13.6340   0.0000   0.1841
 -11.800  -1.0397   0.00941   0.00555  -0.0556  0.8596  0.0023  -13.4230   0.0000   0.1837
 -11.700  -1.0293   0.00932   0.00546  -0.0556  0.8583  0.0024  -13.2134   0.0000   0.1832
 -11.600  -1.0189   0.00923   0.00537  -0.0556  0.8567  0.0024  -13.0052   0.0000   0.1828
 -11.500  -1.0085   0.00915   0.00528  -0.0556  0.8550  0.0024  -12.7982   0.0000   0.1824
 -11.400  -0.9979   0.00906   0.00519  -0.0557  0.8540  0.0024  -12.5918   0.0000   0.1819
 -11.300  -0.9874   0.00897   0.00510  -0.0557  0.8531  0.0024  -12.3866   0.0000   0.1814
 -11.200  -0.9768   0.00889   0.00502  -0.0557  0.8520  0.0024  -12.1828   0.0000   0.1809
 -11.100  -0.9662   0.00880   0.00493  -0.0557  0.8507  0.0024  -11.9805   0.0000   0.1804
 -11.000  -0.9557   0.00872   0.00485  -0.0557  0.8493  0.0024  -11.7797   0.0000   0.1798
 -10.900  -0.9451   0.00864   0.00476  -0.0558  0.8477  0.0024  -11.5804   0.0000   0.1793
 -10.800  -0.9345   0.00857   0.00468  -0.0558  0.8460  0.0024  -11.3823   0.0000   0.1787
 -10.700  -0.9238   0.00848   0.00460  -0.0558  0.8453  0.0024  -11.1848   0.0000   0.1781
 -10.600  -0.9131   0.00840   0.00452  -0.0559  0.8443  0.0024  -10.9888   0.0000   0.1775
 -10.500  -0.9024   0.00833   0.00444  -0.0559  0.8432  0.0024  -10.7944   0.0000   0.1768
 -10.400  -0.8917   0.00825   0.00437  -0.0559  0.8419  0.0024  -10.6015   0.0000   0.1761
 -10.300  -0.8810   0.00818   0.00429  -0.0560  0.8406  0.0024  -10.4101   0.0000   0.1754
 -10.200  -0.8702   0.00810   0.00421  -0.0560  0.8391  0.0024  -10.2203   0.0000   0.1747
 -10.100  -0.8595   0.00803   0.00414  -0.0560  0.8374  0.0024  -10.0319   0.0000   0.1740
 -10.000  -0.8487   0.00796   0.00406  -0.0561  0.8367  0.0024  -9.8442   0.0000   0.1732
  -9.900  -0.8379   0.00788   0.00399  -0.0562  0.8358  0.0024  -9.6581   0.0000   0.1724
  -9.800  -0.8270   0.00781   0.00392  -0.0562  0.8348  0.0024  -9.4735   0.0000   0.1715
  -9.700  -0.8162   0.00774   0.00385  -0.0563  0.8336  0.0024  -9.2905   0.0000   0.1707
  -9.600  -0.8054   0.00767   0.00378  -0.0563  0.8323  0.0024  -9.1092   0.0000   0.1698
  -9.500  -0.7945   0.00760   0.00371  -0.0563  0.8308  0.0024  -8.9295   0.0000   0.1689
  -9.400  -0.7837   0.00754   0.00364  -0.0564  0.8290  0.0024  -8.7514   0.0000   0.1679
  -9.300  -0.7728   0.00747   0.00357  -0.0564  0.8279  0.0024  -8.5742   0.0000   0.1669
  -9.200  -0.7619   0.00740   0.00350  -0.0565  0.8270  0.0024  -8.3984   0.0000   0.1659
  -9.100  -0.7509   0.00733   0.00344  -0.0566  0.8260  0.0024  -8.2243   0.0000   0.1648
  -9.000  -0.7400   0.00727   0.00337  -0.0566  0.8247  0.0024  -8.0518   0.0000   0.1637
  -8.900  -0.7291   0.00721   0.00331  -0.0567  0.8232  0.0024  -7.8811   0.0000   0.1626
  -8.800  -0.7182   0.00714   0.00324  -0.0567  0.8216  0.0024  -7.7121   0.0000   0.1614
  -8.700  -0.7073   0.00708   0.00318  -0.0568  0.8197  0.0024  -7.5445   0.0000   0.1602
  -8.600  -0.6963   0.00702   0.00311  -0.0569  0.8187  0.0025  -7.3795   0.0000   0.1589
  -8.500  -0.6854   0.00694   0.00303  -0.0569  0.8177  0.0025  -7.2221   0.0000   0.1577
  -8.400  -0.6745   0.00686   0.00295  -0.0569  0.8164  0.0026  -7.0674   0.0000   0.1563
  -8.300  -0.6636   0.00679   0.00287  -0.0570  0.8148  0.0028  -6.9151   0.0000   0.1550
  -8.200  -0.6528   0.00672   0.00279  -0.0570  0.8129  0.0030  -6.7604   0.0000   0.1536
  -8.100  -0.6419   0.00665   0.00273  -0.0571  0.8108  0.0032  -6.6042   0.0000   0.1521
  -8.000  -0.6309   0.00659   0.00267  -0.0571  0.8095  0.0033  -6.4479   0.0000   0.1505
  -7.900  -0.6198   0.00653   0.00261  -0.0572  0.8084  0.0035  -6.2923   0.0000   0.1488
  -7.800  -0.6088   0.00647   0.00255  -0.0573  0.8069  0.0036  -6.1380   0.0000   0.1471
  -7.700  -0.5977   0.00641   0.00250  -0.0573  0.8052  0.0036  -5.9851   0.0000   0.1453
  -7.600  -0.5867   0.00637   0.00245  -0.0574  0.8031  0.0037  -5.8339   0.0000   0.1435
  -7.500  -0.5756   0.00632   0.00240  -0.0575  0.8008  0.0037  -5.6840   0.0000   0.1415
  -7.400  -0.5645   0.00627   0.00235  -0.0575  0.7997  0.0038  -5.5349   0.0000   0.1395
  -7.300  -0.5533   0.00622   0.00230  -0.0576  0.7982  0.0038  -5.3874   0.0000   0.1373
  -7.200  -0.5422   0.00617   0.00226  -0.0577  0.7962  0.0038  -5.2418   0.0000   0.1351
  -7.100  -0.5311   0.00613   0.00221  -0.0578  0.7939  0.0038  -5.0981   0.0000   0.1328
  -7.000  -0.5200   0.00609   0.00217  -0.0578  0.7912  0.0039  -4.9560   0.0000   0.1304
  -6.900  -0.5088   0.00605   0.00212  -0.0579  0.7898  0.0039  -4.8147   0.0000   0.1278
  -6.800  -0.4976   0.00600   0.00208  -0.0580  0.7879  0.0039  -4.6753   0.0000   0.1251
  -6.700  -0.4865   0.00596   0.00204  -0.0581  0.7854  0.0039  -4.5379   0.0000   0.1223
  -6.600  -0.4754   0.00593   0.00200  -0.0582  0.7825  0.0039  -4.4024   0.0000   0.1194
  -6.500  -0.4642   0.00589   0.00196  -0.0582  0.7808  0.0039  -4.2677   0.0000   0.1163
  -6.400  -0.4530   0.00584   0.00192  -0.0583  0.7789  0.0039  -4.1347   0.0000   0.1130
  -6.300  -0.4418   0.00581   0.00188  -0.0584  0.7765  0.0039  -4.0037   0.0000   0.1096
  -6.200  -0.4307   0.00577   0.00184  -0.0585  0.7736  0.0039  -3.8748   0.0000   0.1061
  -6.100  -0.4195   0.00573   0.00179  -0.0586  0.7713  0.0040  -3.7493   0.0000   0.1023
  -6.000  -0.4083   0.00568   0.00175  -0.0586  0.7694  0.0042  -3.6253   0.0000   0.0983
  -5.900  -0.3972   0.00564   0.00170  -0.0587  0.7670  0.0044  -3.5032   0.0000   0.0941
  -5.800  -0.3861   0.00560   0.00166  -0.0588  0.7640  0.0048  -3.3876   0.0000   0.0897
  -5.700  -0.3749   0.00556   0.00162  -0.0588  0.7615  0.0051  -3.2793   0.0000   0.0850
  -5.600  -0.3637   0.00552   0.00158  -0.0589  0.7595  0.0053  -3.1715   0.0000   0.0799
  -5.500  -0.3526   0.00548   0.00154  -0.0590  0.7567  0.0055  -3.0649   0.0000   0.0745
  -5.400  -0.3415   0.00545   0.00151  -0.0590  0.7532  0.0057  -2.9599   0.0000   0.0689
  -5.300  -0.3302   0.00541   0.00147  -0.0591  0.7508  0.0064  -2.8565   0.0000   0.0627
  -5.200  -0.3191   0.00537   0.00143  -0.0592  0.7484  0.0071  -2.7542   0.0000   0.0562
  -5.100  -0.3079   0.00534   0.00140  -0.0593  0.7455  0.0076  -2.6530   0.0000   0.0493
  -5.000  -0.2968   0.00531   0.00137  -0.0593  0.7421  0.0079  -2.5532   0.0000   0.0417
  -4.900  -0.2855   0.00527   0.00133  -0.0594  0.7403  0.0089  -2.4546   0.0000   0.0335
  -4.800  -0.2744   0.00523   0.00129  -0.0595  0.7376  0.0097  -2.3575   0.0000   0.0247
  -4.700  -0.2632   0.00520   0.00127  -0.0595  0.7341  0.0104  -2.2618   0.0000   0.0152
  -4.600  -0.2521   0.00516   0.00123  -0.0596  0.7310  0.0121  -2.1679   0.0000   0.0049
  -4.500  -0.2409   0.00513   0.00120  -0.0597  0.7283  0.0128  -2.0744   0.0000  -0.0066
  -4.400  -0.2298   0.00510   0.00117  -0.0597  0.7243  0.0142  -1.9831   0.0000  -0.0190
  -4.300  -0.2187   0.00507   0.00114  -0.0598  0.7205  0.0154  -1.8930   0.0000  -0.0326
  -4.200  -0.2075   0.00504   0.00111  -0.0599  0.7170  0.0172  -1.8041   0.0000  -0.0478
  -4.100  -0.1965   0.00502   0.00109  -0.0599  0.7123  0.0188  -1.7171   0.0000  -0.0643
  -4.000  -0.1853   0.00499   0.00106  -0.0600  0.7088  0.0209  -1.6309   0.0000  -0.0833
  -3.900  -0.1743   0.00496   0.00103  -0.0600  0.7040  0.0229  -1.5464   0.0000  -0.1043
  -3.800  -0.1633   0.00493   0.00100  -0.0600  0.6993  0.0261  -1.4635   0.0000  -0.1280
  -3.700  -0.1522   0.00490   0.00098  -0.0601  0.6946  0.0297  -1.3874   0.0000  -0.1552
  -3.600  -0.1413   0.00487   0.00095  -0.0601  0.6890  0.0337  -1.3165   0.0000  -0.1862
  -3.500  -0.1303   0.00486   0.00093  -0.0601  0.6837  0.0364  -1.2459   0.0000  -0.2232
  -3.300  -0.1085   0.00482   0.00089  -0.0602  0.6709  0.0439  -1.1092   0.0000  -0.3174
  -3.200  -0.0976   0.00479   0.00087  -0.0602  0.6644  0.0487  -1.0425   0.0000  -0.3805
  -3.100  -0.0868   0.00478   0.00085  -0.0602  0.6567  0.0536  -0.9771   0.0000  -0.4580
  -3.000  -0.0760   0.00476   0.00083  -0.0602  0.6495  0.0591  -0.9125   0.0000  -0.5582
  -2.900  -0.0651   0.00475   0.00081  -0.0602  0.6418  0.0634  -0.8488   0.0000  -0.6927
  -2.800  -0.0543   0.00475   0.00080  -0.0602  0.6333  0.0676  -0.7865   0.0000  -0.8790
  -2.700  -0.0436   0.00474   0.00079  -0.0601  0.6244  0.0724  -0.7254   0.0000  -1.1550
  -2.600  -0.0327   0.00473   0.00077  -0.0601  0.6165  0.0781  -0.6745   0.0000  -1.6175
  -2.500  -0.0220   0.00471   0.00076  -0.0601  0.6085  0.0853  -0.6322   0.0000  -2.5311
  -2.400  -0.0114   0.00469   0.00074  -0.0601  0.5996  0.0960  -0.5946   0.0000  -5.0944
  -2.300  -0.0009   0.00466   0.00073  -0.0600  0.5913  0.1097  -0.5588   0.0000  -65.2600
  -2.200   0.0098   0.00463   0.00071  -0.0600  0.5841  0.1197  -0.5273   0.0000   6.4278
  -2.100   0.0207   0.00463   0.00070  -0.0600  0.5762  0.1255  -0.5004   0.0000   3.1870
  -2.000   0.0314   0.00462   0.00070  -0.0600  0.5686  0.1349  -0.4771   0.0000   2.1831
  -1.800   0.0530   0.00458   0.00067  -0.0600  0.5550  0.1551  -0.4308   0.0000   1.3934
  -1.700   0.0638   0.00456   0.00067  -0.0600  0.5478  0.1646  -0.4082   0.0000   1.1991
  -1.600   0.0745   0.00454   0.00066  -0.0599  0.5401  0.1769  -0.3897   0.0000   1.0617
  -1.500   0.0851   0.00453   0.00065  -0.0599  0.5321  0.1894  -0.3936   0.0000   0.9596
  -1.300   0.1066   0.00453   0.00065  -0.0599  0.5145  0.2061  -0.4015   0.0000   0.8153
  -1.200   0.1174   0.00454   0.00065  -0.0599  0.5047  0.2124  -0.4071   0.0000   0.7630
  -1.000   0.1385   0.00456   0.00065  -0.0598  0.4818  0.2297  -0.4174   0.0000   0.6834
  -0.800   0.1597   0.00458   0.00065  -0.0597  0.4605  0.2505  -0.4286   0.0000   0.6248
  -0.700   0.1700   0.00456   0.00065  -0.0596  0.4502  0.2689  -0.4343   0.0000   0.6013
  -0.600   0.1803   0.00455   0.00065  -0.0595  0.4395  0.2874  -0.4401   0.0000   0.5804
  -0.500   0.1907   0.00454   0.00065  -0.0594  0.4286  0.3033  -0.4463   0.0000   0.5618
  -0.400   0.2013   0.00456   0.00066  -0.0594  0.4178  0.3126  -0.4529   0.0000   0.5450
  -0.300   0.2119   0.00457   0.00067  -0.0594  0.4068  0.3218  -0.4594   0.0000   0.5298
  -0.200   0.2225   0.00459   0.00068  -0.0593  0.3955  0.3315  -0.4659   0.0000   0.5161
  -0.100   0.2331   0.00459   0.00068  -0.0593  0.3859  0.3444  -0.4730   0.0000   0.5036
   0.000   0.2437   0.00458   0.00068  -0.0593  0.3787  0.3599  -0.4805   0.0000   0.4922
   0.100   0.2544   0.00457   0.00069  -0.0592  0.3709  0.3758  -0.4878   0.0000   0.4818
   0.200   0.2650   0.00454   0.00069  -0.0592  0.3652  0.3936  -0.4953   0.0000   0.4722
   0.400   0.2865   0.00453   0.00070  -0.0592  0.3521  0.4205  -0.5110   0.0000   0.4551
   0.500   0.2972   0.00453   0.00070  -0.0592  0.3438  0.4336  -0.5194   0.0000   0.4475
   0.600   0.3078   0.00453   0.00071  -0.0591  0.3344  0.4481  -0.5284   0.0000   0.4404
   0.800   0.3288   0.00454   0.00073  -0.0590  0.3149  0.4775  -0.5471   0.0000   0.4276
   0.900   0.3394   0.00455   0.00075  -0.0590  0.3058  0.4892  -0.5569   0.0000   0.4218
   1.000   0.3501   0.00457   0.00076  -0.0590  0.2975  0.4986  -0.5668   0.0000   0.4163
   1.100   0.3609   0.00460   0.00078  -0.0590  0.2891  0.5051  -0.5775   0.0000   0.4112
   1.200   0.3718   0.00463   0.00079  -0.0590  0.2809  0.5111  -0.5881   0.0000   0.4063
   1.300   0.3827   0.00466   0.00081  -0.0590  0.2724  0.5152  -0.5988   0.0000   0.4018
   1.400   0.3935   0.00470   0.00083  -0.0590  0.2638  0.5196  -0.6096   0.0000   0.3974
   1.500   0.4044   0.00472   0.00085  -0.0590  0.2578  0.5274  -0.6218   0.0000   0.3933
   1.600   0.4152   0.00473   0.00086  -0.0590  0.2510  0.5379  -0.6359   0.0000   0.3895
   1.700   0.4258   0.00475   0.00088  -0.0590  0.2417  0.5492  -0.6506   0.0000   0.3858
   1.800   0.4363   0.00478   0.00090  -0.0589  0.2319  0.5617  -0.6652   0.0000   0.3822
   1.900   0.4467   0.00481   0.00092  -0.0589  0.2213  0.5743  -0.6799   0.0000   0.3788
   2.000   0.4573   0.00483   0.00094  -0.0589  0.2131  0.5863  -0.6947   0.0000   0.3756
   2.100   0.4681   0.00484   0.00097  -0.0588  0.2074  0.5979  -0.7116   0.0000   0.3726
   2.200   0.4790   0.00485   0.00098  -0.0589  0.2030  0.6082  -0.7291   0.0000   0.3697
   2.300   0.4898   0.00487   0.00101  -0.0589  0.1968  0.6177  -0.7478   0.0000   0.3669
   2.400   0.5008   0.00489   0.00102  -0.0589  0.1928  0.6259  -0.7668   0.0000   0.3642
   2.500   0.5116   0.00491   0.00105  -0.0589  0.1863  0.6336  -0.7857   0.0000   0.3617
   2.600   0.5223   0.00495   0.00108  -0.0589  0.1787  0.6403  -0.8046   0.0000   0.3592
   2.700   0.5329   0.00501   0.00111  -0.0589  0.1685  0.6454  -0.8268   0.0000   0.3568
   2.800   0.5434   0.00508   0.00114  -0.0588  0.1572  0.6505  -0.8496   0.0000   0.3545
   2.900   0.5539   0.00514   0.00118  -0.0587  0.1471  0.6551  -0.8725   0.0000   0.3523
   3.000   0.5647   0.00520   0.00121  -0.0587  0.1395  0.6576  -0.8960   0.0000   0.3501
   3.100   0.5755   0.00524   0.00125  -0.0587  0.1324  0.6622  -0.9195   0.0000   0.3481
   3.200   0.5861   0.00530   0.00128  -0.0587  0.1239  0.6664  -0.9447   0.0000   0.3461
   3.300   0.5967   0.00537   0.00132  -0.0587  0.1150  0.6695  -0.9708   0.0000   0.3442
   3.400   0.6073   0.00543   0.00136  -0.0586  0.1071  0.6751  -0.9978   0.0000   0.3423
   3.500   0.6182   0.00547   0.00139  -0.0586  0.1022  0.6790  -1.0320   0.0000   0.3406
   3.600   0.6291   0.00551   0.00142  -0.0587  0.0978  0.6828  -1.0689   0.0000   0.3389
   3.700   0.6397   0.00557   0.00146  -0.0586  0.0917  0.6875  -1.1057   0.0000   0.3372
   3.800   0.6505   0.00562   0.00150  -0.0586  0.0863  0.6907  -1.1541   0.0000   0.3356
   3.900   0.6614   0.00567   0.00153  -0.0586  0.0820  0.6945  -1.2061   0.0000   0.3341
   4.000   0.6720   0.00572   0.00157  -0.0586  0.0765  0.6985  -1.2583   0.0000   0.3325
   4.100   0.6828   0.00578   0.00161  -0.0586  0.0711  0.7013  -1.3111   0.0000   0.3311
   4.200   0.6936   0.00584   0.00165  -0.0586  0.0666  0.7033  -1.3686   0.0000   0.3296
   4.300   0.7044   0.00588   0.00169  -0.0586  0.0637  0.7067  -1.4283   0.0000   0.3283
   4.400   0.7152   0.00594   0.00173  -0.0586  0.0598  0.7092  -1.4885   0.0000   0.3269
   4.500   0.7259   0.00600   0.00177  -0.0586  0.0554  0.7112  -1.5492   0.0000   0.3256
   4.600   0.7368   0.00605   0.00182  -0.0586  0.0524  0.7126  -1.6110   0.0000   0.3244
   4.700   0.7476   0.00611   0.00186  -0.0586  0.0489  0.7135  -1.6735   0.0000   0.3231
   4.800   0.7581   0.00619   0.00191  -0.0586  0.0433  0.7157  -1.7355   0.0000   0.3219
   4.900   0.7685   0.00627   0.00197  -0.0585  0.0380  0.7179  -1.8031   0.0000   0.3207
   5.000   0.7794   0.00632   0.00201  -0.0585  0.0354  0.7198  -1.8741   0.0000   0.3195
   5.100   0.7900   0.00639   0.00206  -0.0585  0.0320  0.7214  -1.9524   0.0000   0.3184
   5.200   0.8007   0.00645   0.00211  -0.0585  0.0294  0.7228  -2.0321   0.0000   0.3173
   5.300   0.8115   0.00651   0.00216  -0.0585  0.0271  0.7240  -2.1133   0.0000   0.3162
   5.500   0.8328   0.00664   0.00226  -0.0585  0.0229  0.7277  -2.2780   0.0000   0.3141
   5.600   0.8435   0.00670   0.00231  -0.0585  0.0208  0.7297  -2.3617   0.0000   0.3131
   5.700   0.8542   0.00675   0.00236  -0.0584  0.0195  0.7315  -2.4468   0.0000   0.3122
   5.800   0.8649   0.00682   0.00242  -0.0584  0.0177  0.7329  -2.5328   0.0000   0.3112
   5.900   0.8757   0.00687   0.00246  -0.0584  0.0169  0.7340  -2.6204   0.0000   0.3103
   6.000   0.8862   0.00694   0.00252  -0.0584  0.0149  0.7349  -2.7078   0.0000   0.3093
   6.100   0.8970   0.00700   0.00257  -0.0584  0.0142  0.7355  -2.7973   0.0000   0.3084
   6.200   0.9076   0.00707   0.00263  -0.0584  0.0132  0.7372  -2.8871   0.0000   0.3076
   6.300   0.9183   0.00712   0.00268  -0.0584  0.0121  0.7391  -2.9782   0.0000   0.3067
   6.400   0.9290   0.00718   0.00273  -0.0584  0.0118  0.7406  -3.0709   0.0000   0.3058
   6.500   0.9396   0.00724   0.00279  -0.0584  0.0110  0.7421  -3.1639   0.0000   0.3050
   6.600   0.9501   0.00731   0.00285  -0.0583  0.0100  0.7433  -3.2574   0.0000   0.3042
   6.700   0.9608   0.00736   0.00290  -0.0583  0.0095  0.7444  -3.3530   0.0000   0.3034
   6.800   0.9715   0.00742   0.00295  -0.0583  0.0093  0.7453  -3.4497   0.0000   0.3026
   6.900   0.9821   0.00748   0.00301  -0.0583  0.0089  0.7459  -3.5506   0.0000   0.3018
   7.000   0.9927   0.00755   0.00307  -0.0583  0.0085  0.7469  -3.6575   0.0000   0.3010
   7.100   1.0032   0.00762   0.00313  -0.0582  0.0081  0.7486  -3.7656   0.0000   0.3003
   7.200   1.0137   0.00768   0.00319  -0.0582  0.0076  0.7502  -3.8749   0.0000   0.2995
   7.300   1.0243   0.00773   0.00324  -0.0582  0.0074  0.7515  -3.9860   0.0000   0.2988
   7.400   1.0349   0.00779   0.00330  -0.0582  0.0074  0.7527  -4.0985   0.0000   0.2981
   7.500   1.0455   0.00785   0.00336  -0.0582  0.0073  0.7537  -4.2121   0.0000   0.2974
   7.600   1.0561   0.00791   0.00341  -0.0581  0.0071  0.7547  -4.3267   0.0000   0.2967
   7.700   1.0665   0.00798   0.00348  -0.0581  0.0069  0.7554  -4.4421   0.0000   0.2960
   7.800   1.0769   0.00805   0.00354  -0.0580  0.0066  0.7561  -4.5582   0.0000   0.2953
   7.900   1.0873   0.00812   0.00361  -0.0580  0.0063  0.7566  -4.6750   0.0000   0.2946
   8.000   1.0977   0.00820   0.00368  -0.0579  0.0060  0.7569  -4.7930   0.0000   0.2939
   8.100   1.1080   0.00827   0.00374  -0.0579  0.0056  0.7580  -4.9121   0.0000   0.2933
   8.200   1.1184   0.00833   0.00381  -0.0578  0.0055  0.7594  -5.0330   0.0000   0.2926
   8.300   1.1288   0.00840   0.00387  -0.0578  0.0055  0.7607  -5.1554   0.0000   0.2920
   8.400   1.1392   0.00846   0.00394  -0.0577  0.0054  0.7618  -5.2787   0.0000   0.2913
   8.500   1.1495   0.00853   0.00400  -0.0577  0.0053  0.7629  -5.4030   0.0000   0.2907
   8.600   1.1597   0.00860   0.00407  -0.0576  0.0052  0.7638  -5.5281   0.0000   0.2901
   8.700   1.1699   0.00868   0.00415  -0.0575  0.0050  0.7648  -5.6536   0.0000   0.2894
   8.800   1.1800   0.00877   0.00423  -0.0574  0.0047  0.7655  -5.7796   0.0000   0.2888
   8.900   1.1900   0.00885   0.00431  -0.0573  0.0045  0.7662  -5.9120   0.0000   0.2882
   9.000   1.2001   0.00894   0.00439  -0.0572  0.0042  0.7668  -6.0505   0.0000   0.2876
   9.100   1.2102   0.00902   0.00447  -0.0571  0.0040  0.7672  -6.1903   0.0000   0.2869
   9.200   1.2204   0.00910   0.00454  -0.0570  0.0039  0.7676  -6.3322   0.0000   0.2863
   9.300   1.2305   0.00917   0.00461  -0.0570  0.0039  0.7685  -6.4758   0.0000   0.2858
   9.400   1.2406   0.00924   0.00469  -0.0569  0.0038  0.7699  -6.6205   0.0000   0.2852
   9.500   1.2506   0.00932   0.00476  -0.0568  0.0038  0.7711  -6.7662   0.0000   0.2846
   9.600   1.2606   0.00940   0.00484  -0.0567  0.0038  0.7721  -6.9129   0.0000   0.2840
   9.700   1.2706   0.00948   0.00492  -0.0565  0.0037  0.7730  -7.0605   0.0000   0.2834
   9.800   1.2804   0.00957   0.00501  -0.0564  0.0036  0.7739  -7.2089   0.0000   0.2828
   9.900   1.2902   0.00966   0.00510  -0.0563  0.0035  0.7747  -7.3579   0.0000   0.2822
  10.000   1.2999   0.00976   0.00519  -0.0561  0.0034  0.7754  -7.5075   0.0000   0.2816
  10.100   1.3096   0.00986   0.00529  -0.0559  0.0032  0.7761  -7.6578   0.0000   0.2811
  10.200   1.3192   0.00995   0.00538  -0.0558  0.0031  0.7767  -7.8091   0.0000   0.2805
  10.300   1.3288   0.01005   0.00548  -0.0556  0.0030  0.7772  -7.9615   0.0000   0.2799
  10.400   1.3384   0.01015   0.00557  -0.0554  0.0029  0.7776  -8.1147   0.0000   0.2793
  10.500   1.3480   0.01025   0.00567  -0.0553  0.0027  0.7779  -8.2687   0.0000   0.2787
  10.600   1.3575   0.01035   0.00577  -0.0551  0.0027  0.7782  -8.4233   0.0000   0.2782
  10.700   1.3670   0.01045   0.00587  -0.0549  0.0026  0.7792  -8.5785   0.0000   0.2776
  10.800   1.3765   0.01055   0.00597  -0.0547  0.0025  0.7804  -8.7359   0.0000   0.2770
  10.900   1.3860   0.01064   0.00606  -0.0545  0.0025  0.7815  -8.8961   0.0000   0.2765
  11.000   1.3955   0.01073   0.00616  -0.0543  0.0025  0.7825  -9.0573   0.0000   0.2759
  11.100   1.4049   0.01082   0.00625  -0.0541  0.0025  0.7834  -9.2195   0.0000   0.2754
  11.200   1.4143   0.01092   0.00635  -0.0539  0.0025  0.7842  -9.3825   0.0000   0.2748
  11.300   1.4236   0.01101   0.00644  -0.0537  0.0025  0.7850  -9.5465   0.0000   0.2742
  11.400   1.4329   0.01111   0.00654  -0.0535  0.0025  0.7857  -9.7113   0.0000   0.2737
  11.500   1.4421   0.01121   0.00664  -0.0533  0.0025  0.7864  -9.8769   0.0000   0.2731
  11.600   1.4513   0.01131   0.00674  -0.0531  0.0025  0.7870  -10.0434   0.0000   0.2726
  11.700   1.4604   0.01141   0.00684  -0.0528  0.0025  0.7875  -10.2106   0.0000   0.2720
  11.800   1.4694   0.01151   0.00695  -0.0526  0.0025  0.7880  -10.3782   0.0000   0.2715
  11.900   1.4780   0.01161   0.00704  -0.0522  0.0025  0.7883  -10.5441   0.0000   0.2709
  12.000   1.4861   0.01170   0.00714  -0.0518  0.0025  0.7886  -10.7170   0.0000   0.2702
  12.100   1.4942   0.01180   0.00724  -0.0513  0.0025  0.7892  -10.8918   0.0000   0.2695
  12.200   1.5025   0.01191   0.00735  -0.0509  0.0025  0.7904  -11.0686   0.0000   0.2689
  12.300   1.5107   0.01202   0.00746  -0.0505  0.0025  0.7916  -11.2467   0.0000   0.2683
  12.400   1.5189   0.01213   0.00757  -0.0501  0.0025  0.7926  -11.4258   0.0000   0.2677
  12.500   1.5271   0.01224   0.00769  -0.0497  0.0025  0.7936  -11.6055   0.0000   0.2671
  12.600   1.5352   0.01235   0.00781  -0.0492  0.0025  0.7944  -11.7858   0.0000   0.2664
  12.700   1.5432   0.01247   0.00793  -0.0488  0.0024  0.7952  -11.9666   0.0000   0.2658
  12.800   1.5511   0.01259   0.00805  -0.0484  0.0024  0.7960  -12.1478   0.0000   0.2652
  12.900   1.5589   0.01272   0.00818  -0.0479  0.0024  0.7967  -12.3295   0.0000   0.2646
  13.000   1.5667   0.01284   0.00831  -0.0474  0.0024  0.7973  -12.5114   0.0000   0.2640
  13.100   1.5743   0.01297   0.00844  -0.0470  0.0024  0.7979  -12.6938   0.0000   0.2633
  13.200   1.5819   0.01311   0.00858  -0.0465  0.0023  0.7984  -12.8763   0.0000   0.2627
  13.300   1.5894   0.01325   0.00872  -0.0460  0.0023  0.7988  -13.0591   0.0000   0.2621
  13.500   1.6040   0.01354   0.00902  -0.0449  0.0022  0.8006  -13.4244   0.0000   0.2608
  13.600   1.6111   0.01369   0.00918  -0.0444  0.0022  0.8020  -13.6066   0.0000   0.2602
  13.700   1.6181   0.01385   0.00934  -0.0438  0.0021  0.8033  -13.7889   0.0000   0.2595
  13.800   1.6250   0.01402   0.00951  -0.0433  0.0021  0.8043  -13.9711   0.0000   0.2589
  13.900   1.6318   0.01419   0.00968  -0.0427  0.0020  0.8053  -14.1532   0.0000   0.2582
  14.000   1.6386   0.01436   0.00986  -0.0421  0.0020  0.8063  -14.3356   0.0000   0.2576
  14.100   1.6453   0.01453   0.01004  -0.0415  0.0019  0.8071  -14.5186   0.0000   0.2570
  14.200   1.6520   0.01471   0.01022  -0.0410  0.0018  0.8078  -14.7017   0.0000   0.2563
  14.300   1.6586   0.01489   0.01041  -0.0404  0.0018  0.8085  -14.8853   0.0000   0.2557
  14.400   1.6651   0.01508   0.01060  -0.0398  0.0017  0.8090  -15.0694   0.0000   0.2551
  14.500   1.6716   0.01527   0.01079  -0.0392  0.0016  0.8094  -15.2536   0.0000   0.2544
  14.600   1.6780   0.01546   0.01099  -0.0386  0.0016  0.8109  -15.4372   0.0000   0.2538
  14.700   1.6843   0.01566   0.01120  -0.0380  0.0015  0.8124  -15.6210   0.0000   0.2532
  14.800   1.6905   0.01586   0.01141  -0.0374  0.0015  0.8137  -15.8041   0.0000   0.2525
  14.900   1.6967   0.01607   0.01163  -0.0368  0.0015  0.8149  -15.9881   0.0000   0.2519
  15.000   1.7031   0.01626   0.01183  -0.0362  0.0015  0.8160  -16.1771   0.0000   0.2513
  15.100   1.7095   0.01645   0.01203  -0.0357  0.0015  0.8171  -16.3671   0.0000   0.2507
  15.200   1.7158   0.01665   0.01224  -0.0351  0.0015  0.8180  -16.5572   0.0000   0.2501
  15.300   1.7220   0.01686   0.01245  -0.0345  0.0015  0.8189  -16.7478   0.0000   0.2495
  15.400   1.7282   0.01707   0.01266  -0.0340  0.0015  0.8195  -16.9390   0.0000   0.2489
  15.500   1.7342   0.01728   0.01289  -0.0334  0.0015  0.8213  -17.1288   0.0000   0.2483
  15.600   1.7402   0.01750   0.01311  -0.0328  0.0015  0.8231  -17.3195   0.0000   0.2477
  15.700   1.7461   0.01772   0.01334  -0.0322  0.0015  0.8247  -17.5097   0.0000   0.2471
  15.800   1.7520   0.01795   0.01358  -0.0316  0.0015  0.8262  -17.7007   0.0000   0.2465
  15.900   1.7578   0.01818   0.01382  -0.0310  0.0015  0.8275  -17.8923   0.0000   0.2459
  16.000   1.7635   0.01842   0.01407  -0.0305  0.0015  0.8287  -18.0832   0.0000   0.2453
  16.200   1.7746   0.01892   0.01459  -0.0293  0.0015  0.8323  -18.4639   0.0000   0.2441
  16.300   1.7801   0.01917   0.01485  -0.0287  0.0015  0.8346  -18.6543   0.0000   0.2435
  16.400   1.7854   0.01943   0.01512  -0.0281  0.0015  0.8366  -18.8447   0.0000   0.2429
  16.500   1.7907   0.01970   0.01541  -0.0275  0.0015  0.8385  -19.0346   0.0000   0.2423
  16.600   1.7960   0.01997   0.01569  -0.0269  0.0015  0.8409  -19.2261   0.0000   0.2418
  16.700   1.8011   0.02026   0.01599  -0.0263  0.0015  0.8444  -19.4152   0.0000   0.2412
  16.800   1.8061   0.02054   0.01629  -0.0257  0.0015  0.8476  -19.6050   0.0000   0.2406
  16.900   1.8110   0.02083   0.01659  -0.0250  0.0014  0.8516  -19.7931   0.0000   0.2400
  17.000   1.8157   0.02113   0.01691  -0.0244  0.0014  0.8566  -19.9797   0.0000   0.2394
  17.100   1.8204   0.02143   0.01723  -0.0238  0.0014  0.8635  -20.1680   0.0000   0.2388
  17.200   1.8248   0.02174   0.01757  -0.0231  0.0014  0.8739  -20.3526   0.0000   0.2382
  17.300   1.8289   0.02202   0.01790  -0.0224  0.0014  0.8974  -20.5339   0.0000   0.2375
  17.600   1.8413   0.02286   0.01898  -0.0204  0.0014  1.0000  -21.0846   0.0000   0.2357
  17.700   1.8454   0.02323   0.01936  -0.0198  0.0014  1.0000  -21.2685   0.0000   0.2351
  17.800   1.8495   0.02359   0.01973  -0.0192  0.0014  1.0000  -21.4539   0.0000   0.2346
  17.900   1.8534   0.02398   0.02013  -0.0185  0.0014  1.0000  -21.6365   0.0000   0.2340
  18.000   1.8573   0.02437   0.02053  -0.0180  0.0014  1.0000  -21.8197   0.0000   0.2334
  18.100   1.8611   0.02478   0.02095  -0.0174  0.0014  1.0000  -22.0032   0.0000   0.2328
  18.200   1.8647   0.02520   0.02138  -0.0168  0.0014  1.0000  -22.1838   0.0000   0.2323
  18.300   1.8685   0.02562   0.02181  -0.0162  0.0014  1.0000  -22.3671   0.0000   0.2317
  18.400   1.8718   0.02607   0.02228  -0.0156  0.0014  1.0000  -22.5453   0.0000   0.2312
  18.500   1.8753   0.02652   0.02273  -0.0150  0.0014  1.0000  -22.7264   0.0000   0.2306
  18.600   1.8784   0.02699   0.02322  -0.0145  0.0014  1.0000  -22.9030   0.0000   0.2301
  18.700   1.8814   0.02746   0.02370  -0.0139  0.0014  1.0000  -23.0790   0.0000   0.2295
  18.800   1.8843   0.02796   0.02421  -0.0133  0.0014  1.0000  -23.2524   0.0000   0.2290
  18.900   1.8869   0.02847   0.02473  -0.0127  0.0014  1.0000  -23.4245   0.0000   0.2284
  19.000   1.8897   0.02899   0.02526  -0.0122  0.0014  1.0000  -23.5981   0.0000   0.2279
  19.100   1.8921   0.02954   0.02583  -0.0116  0.0014  1.0000  -23.7674   0.0000   0.2273
  19.200   1.8948   0.03008   0.02639  -0.0111  0.0013  1.0000  -23.9400   0.0000   0.2268
  19.300   1.8969   0.03068   0.02700  -0.0106  0.0013  1.0000  -24.1060   0.0000   0.2263
  19.400   1.8993   0.03126   0.02759  -0.0101  0.0013  1.0000  -24.2758   0.0000   0.2257
  19.500   1.9011   0.03190   0.02824  -0.0096  0.0013  1.0000  -24.4380   0.0000   0.2252
  19.600   1.9033   0.03252   0.02888  -0.0091  0.0013  1.0000  -24.6047   0.0000   0.2247
  19.700   1.9048   0.03320   0.02958  -0.0086  0.0013  1.0000  -24.7627   0.0000   0.2242
  19.800   1.9064   0.03387   0.03026  -0.0081  0.0013  1.0000  -24.9236   0.0000   0.2237
  19.900   1.9074   0.03460   0.03100  -0.0076  0.0013  1.0000  -25.0746   0.0000   0.2232
  20.000   1.9087   0.03531   0.03173  -0.0072  0.0012  1.0000  -25.2305   0.0000   0.2227


