xflr5 v6.32

 Calculated polar for: finalfoil mod1

 1 1 Reynolds number fixed          Mach number fixed         

 xtrf =   1.000 (top)        1.000 (bottom)
 Mach =   0.000     Re =    50.000 e 6     Ncrit =   9.000

  alpha     CL        CD       CDp       Cm    Top Xtr Bot Xtr   Cpmin    Chinge    XCp    
 ------- -------- --------- --------- -------- ------- ------- -------- --------- ---------
 -15.000  -1.3776   0.01126   0.00773  -0.0548  0.8617  0.0013  -21.0237   0.0000   0.1925
 -14.900  -1.3679   0.01115   0.00761  -0.0547  0.8605  0.0013  -20.7772   0.0000   0.1925
 -14.800  -1.3583   0.01103   0.00749  -0.0546  0.8589  0.0013  -20.5318   0.0000   0.1924
 -14.700  -1.3486   0.01092   0.00738  -0.0545  0.8570  0.0013  -20.2876   0.0000   0.1924
 -14.600  -1.3389   0.01081   0.00726  -0.0545  0.8547  0.0013  -20.0438   0.0000   0.1923
 -14.500  -1.3291   0.01070   0.00715  -0.0544  0.8539  0.0013  -19.8000   0.0000   0.1922
 -14.400  -1.3192   0.01059   0.00704  -0.0543  0.8529  0.0013  -19.5572   0.0000   0.1921
 -14.300  -1.3094   0.01048   0.00693  -0.0543  0.8515  0.0013  -19.3156   0.0000   0.1920
 -14.200  -1.2995   0.01038   0.00682  -0.0542  0.8499  0.0013  -19.0752   0.0000   0.1919
 -14.100  -1.2896   0.01027   0.00671  -0.0542  0.8480  0.0013  -18.8359   0.0000   0.1918
 -14.000  -1.2796   0.01017   0.00660  -0.0541  0.8460  0.0013  -18.5970   0.0000   0.1917
 -13.900  -1.2695   0.01007   0.00650  -0.0541  0.8454  0.0013  -18.3585   0.0000   0.1915
 -13.800  -1.2594   0.00996   0.00640  -0.0541  0.8445  0.0013  -18.1212   0.0000   0.1913
 -13.700  -1.2493   0.00986   0.00629  -0.0540  0.8433  0.0013  -17.8851   0.0000   0.1912
 -13.600  -1.2392   0.00977   0.00619  -0.0540  0.8417  0.0013  -17.6503   0.0000   0.1910
 -13.500  -1.2291   0.00967   0.00609  -0.0540  0.8399  0.0013  -17.4168   0.0000   0.1908
 -13.400  -1.2189   0.00958   0.00600  -0.0539  0.8377  0.0013  -17.1842   0.0000   0.1906
 -13.300  -1.2086   0.00948   0.00590  -0.0539  0.8369  0.0013  -16.9519   0.0000   0.1904
 -13.200  -1.1984   0.00939   0.00580  -0.0539  0.8361  0.0013  -16.7208   0.0000   0.1902
 -13.100  -1.1881   0.00929   0.00571  -0.0539  0.8350  0.0013  -16.4909   0.0000   0.1900
 -13.000  -1.1778   0.00920   0.00562  -0.0539  0.8335  0.0013  -16.2625   0.0000   0.1897
 -12.900  -1.1675   0.00911   0.00553  -0.0539  0.8317  0.0013  -16.0355   0.0000   0.1895
 -12.800  -1.1571   0.00903   0.00544  -0.0539  0.8296  0.0013  -15.8096   0.0000   0.1892
 -12.700  -1.1467   0.00894   0.00535  -0.0539  0.8282  0.0013  -15.5843   0.0000   0.1889
 -12.600  -1.1363   0.00885   0.00526  -0.0539  0.8274  0.0013  -15.3600   0.0000   0.1886
 -12.500  -1.1258   0.00876   0.00517  -0.0539  0.8264  0.0013  -15.1370   0.0000   0.1883
 -12.400  -1.1153   0.00868   0.00508  -0.0539  0.8251  0.0013  -14.9155   0.0000   0.1880
 -12.300  -1.1050   0.00858   0.00498  -0.0539  0.8235  0.0015  -14.7128   0.0000   0.1877
 -12.200  -1.0946   0.00849   0.00489  -0.0539  0.8216  0.0015  -14.4988   0.0000   0.1874
 -12.100  -1.0842   0.00841   0.00480  -0.0539  0.8195  0.0016  -14.2841   0.0000   0.1871
 -12.000  -1.0736   0.00832   0.00472  -0.0539  0.8188  0.0017  -14.0691   0.0000   0.1867
 -11.900  -1.0630   0.00823   0.00463  -0.0540  0.8180  0.0017  -13.8551   0.0000   0.1863
 -11.800  -1.0525   0.00815   0.00455  -0.0540  0.8168  0.0018  -13.6423   0.0000   0.1859
 -11.700  -1.0419   0.00807   0.00447  -0.0540  0.8150  0.0018  -13.4311   0.0000   0.1855
 -11.600  -1.0314   0.00799   0.00438  -0.0540  0.8127  0.0019  -13.2214   0.0000   0.1851
 -11.500  -1.0209   0.00791   0.00430  -0.0540  0.8101  0.0019  -13.0126   0.0000   0.1847
 -11.400  -1.0102   0.00782   0.00422  -0.0540  0.8093  0.0020  -12.8044   0.0000   0.1842
 -11.300  -0.9996   0.00774   0.00414  -0.0541  0.8080  0.0020  -12.5976   0.0000   0.1838
 -11.200  -0.9890   0.00766   0.00406  -0.0541  0.8061  0.0020  -12.3923   0.0000   0.1833
 -11.100  -0.9784   0.00759   0.00398  -0.0541  0.8037  0.0021  -12.1886   0.0000   0.1828
 -11.000  -0.9677   0.00751   0.00390  -0.0541  0.8010  0.0021  -11.9857   0.0000   0.1823
 -10.900  -0.9570   0.00743   0.00383  -0.0542  0.8000  0.0022  -11.7831   0.0000   0.1817
 -10.800  -0.9462   0.00736   0.00376  -0.0542  0.7988  0.0022  -11.5818   0.0000   0.1812
 -10.700  -0.9355   0.00729   0.00369  -0.0542  0.7968  0.0022  -11.3821   0.0000   0.1806
 -10.600  -0.9247   0.00723   0.00362  -0.0543  0.7942  0.0023  -11.1841   0.0000   0.1800
 -10.500  -0.9140   0.00717   0.00355  -0.0543  0.7913  0.0023  -10.9871   0.0000   0.1794
 -10.400  -0.9031   0.00710   0.00349  -0.0544  0.7903  0.0023  -10.7907   0.0000   0.1787
 -10.300  -0.8922   0.00704   0.00343  -0.0544  0.7886  0.0023  -10.5961   0.0000   0.1780
 -10.200  -0.8814   0.00698   0.00337  -0.0544  0.7861  0.0023  -10.4034   0.0000   0.1773
 -10.100  -0.8706   0.00692   0.00331  -0.0545  0.7828  0.0023  -10.2124   0.0000   0.1766
 -10.000  -0.8596   0.00686   0.00325  -0.0545  0.7810  0.0024  -10.0219   0.0000   0.1759
  -9.900  -0.8487   0.00681   0.00319  -0.0546  0.7793  0.0024  -9.8330   0.0000   0.1751
  -9.800  -0.8378   0.00675   0.00313  -0.0546  0.7761  0.0024  -9.6465   0.0000   0.1743
  -9.700  -0.8270   0.00670   0.00308  -0.0547  0.7720  0.0024  -9.4615   0.0000   0.1735
  -9.600  -0.8160   0.00665   0.00302  -0.0548  0.7703  0.0024  -9.2770   0.0000   0.1726
  -9.500  -0.8051   0.00660   0.00297  -0.0548  0.7673  0.0024  -9.0947   0.0000   0.1718
  -9.400  -0.7942   0.00655   0.00291  -0.0548  0.7631  0.0024  -8.9145   0.0000   0.1709
  -9.300  -0.7832   0.00650   0.00286  -0.0549  0.7610  0.0024  -8.7345   0.0000   0.1699
  -9.200  -0.7722   0.00645   0.00281  -0.0550  0.7581  0.0024  -8.5565   0.0000   0.1690
  -9.100  -0.7614   0.00641   0.00276  -0.0550  0.7536  0.0024  -8.3810   0.0000   0.1680
  -9.000  -0.7504   0.00636   0.00271  -0.0551  0.7509  0.0024  -8.2058   0.0000   0.1669
  -8.900  -0.7394   0.00631   0.00266  -0.0551  0.7479  0.0024  -8.0325   0.0000   0.1658
  -8.800  -0.7285   0.00627   0.00261  -0.0552  0.7438  0.0024  -7.8613   0.0000   0.1648
  -8.700  -0.7174   0.00622   0.00256  -0.0552  0.7412  0.0024  -7.6906   0.0000   0.1636
  -8.600  -0.7063   0.00618   0.00251  -0.0553  0.7387  0.0024  -7.5216   0.0000   0.1624
  -8.500  -0.6954   0.00614   0.00247  -0.0553  0.7346  0.0024  -7.3551   0.0000   0.1611
  -8.400  -0.6844   0.00609   0.00242  -0.0554  0.7312  0.0024  -7.1894   0.0000   0.1598
  -8.300  -0.6733   0.00605   0.00238  -0.0555  0.7284  0.0024  -7.0251   0.0000   0.1585
  -8.200  -0.6624   0.00602   0.00233  -0.0555  0.7234  0.0024  -6.8636   0.0000   0.1571
  -8.100  -0.6513   0.00597   0.00229  -0.0556  0.7199  0.0024  -6.7025   0.0000   0.1557
  -8.000  -0.6403   0.00594   0.00225  -0.0556  0.7160  0.0024  -6.5436   0.0000   0.1542
  -7.900  -0.6293   0.00590   0.00220  -0.0557  0.7112  0.0024  -6.3864   0.0000   0.1527
  -7.800  -0.6181   0.00586   0.00216  -0.0558  0.7088  0.0024  -6.2297   0.0000   0.1510
  -7.700  -0.6071   0.00583   0.00212  -0.0558  0.7044  0.0024  -6.0757   0.0000   0.1494
  -7.600  -0.5961   0.00579   0.00208  -0.0559  0.7000  0.0025  -5.9241   0.0000   0.1476
  -7.500  -0.5850   0.00575   0.00204  -0.0559  0.6967  0.0027  -5.7741   0.0000   0.1458
  -7.400  -0.5741   0.00572   0.00200  -0.0560  0.6915  0.0029  -5.6261   0.0000   0.1440
  -7.300  -0.5630   0.00568   0.00195  -0.0561  0.6879  0.0030  -5.4785   0.0000   0.1420
  -7.200  -0.5520   0.00565   0.00191  -0.0561  0.6833  0.0032  -5.3333   0.0000   0.1400
  -7.100  -0.5410   0.00561   0.00187  -0.0561  0.6783  0.0033  -5.1894   0.0000   0.1379
  -7.000  -0.5299   0.00557   0.00183  -0.0562  0.6742  0.0035  -5.0468   0.0000   0.1357
  -6.900  -0.5190   0.00554   0.00179  -0.0562  0.6679  0.0036  -4.9062   0.0000   0.1334
  -6.800  -0.5079   0.00551   0.00176  -0.0563  0.6640  0.0037  -4.7661   0.0000   0.1309
  -6.700  -0.4969   0.00549   0.00172  -0.0563  0.6574  0.0037  -4.6285   0.0000   0.1285
  -6.600  -0.4858   0.00546   0.00169  -0.0564  0.6534  0.0038  -4.4914   0.0000   0.1258
  -6.500  -0.4748   0.00544   0.00166  -0.0564  0.6466  0.0038  -4.3570   0.0000   0.1230
  -6.400  -0.4636   0.00541   0.00163  -0.0565  0.6424  0.0038  -4.2232   0.0000   0.1200
  -6.300  -0.4527   0.00540   0.00160  -0.0565  0.6352  0.0038  -4.0921   0.0000   0.1170
  -6.200  -0.4416   0.00538   0.00157  -0.0566  0.6300  0.0038  -3.9619   0.0000   0.1138
  -6.100  -0.4306   0.00536   0.00154  -0.0566  0.6228  0.0039  -3.8339   0.0000   0.1104
  -6.000  -0.4196   0.00535   0.00152  -0.0567  0.6162  0.0039  -3.7076   0.0000   0.1069
  -5.900  -0.4085   0.00533   0.00149  -0.0567  0.6099  0.0039  -3.5823   0.0000   0.1031
  -5.800  -0.3975   0.00532   0.00146  -0.0568  0.6016  0.0039  -3.4596   0.0000   0.0992
  -5.700  -0.3865   0.00531   0.00144  -0.0568  0.5951  0.0039  -3.3444   0.0000   0.0950
  -5.600  -0.3754   0.00529   0.00141  -0.0569  0.5881  0.0039  -3.2355   0.0000   0.0906
  -5.500  -0.3644   0.00528   0.00139  -0.0569  0.5809  0.0039  -3.1283   0.0000   0.0859
  -5.400  -0.3533   0.00527   0.00136  -0.0570  0.5753  0.0039  -3.0216   0.0000   0.0807
  -5.300  -0.3423   0.00526   0.00134  -0.0570  0.5664  0.0040  -2.9181   0.0000   0.0755
  -5.200  -0.3313   0.00525   0.00132  -0.0570  0.5590  0.0043  -2.8161   0.0000   0.0699
  -5.100  -0.3202   0.00523   0.00129  -0.0571  0.5528  0.0046  -2.7143   0.0000   0.0637
  -5.000  -0.3093   0.00523   0.00127  -0.0571  0.5433  0.0049  -2.6148   0.0000   0.0573
  -4.900  -0.2984   0.00522   0.00125  -0.0571  0.5355  0.0052  -2.5164   0.0000   0.0504
  -4.800  -0.2873   0.00520   0.00122  -0.0572  0.5293  0.0054  -2.4184   0.0000   0.0428
  -4.700  -0.2763   0.00520   0.00120  -0.0572  0.5200  0.0056  -2.3224   0.0000   0.0348
  -4.600  -0.2654   0.00519   0.00118  -0.0572  0.5120  0.0062  -2.2278   0.0000   0.0260
  -4.500  -0.2543   0.00517   0.00115  -0.0573  0.5056  0.0071  -2.1345   0.0000   0.0164
  -4.400  -0.2434   0.00517   0.00113  -0.0573  0.4966  0.0076  -2.0426   0.0000   0.0061
  -4.300  -0.2324   0.00517   0.00112  -0.0573  0.4886  0.0078  -1.9518   0.0000  -0.0053
  -4.200  -0.2212   0.00515   0.00110  -0.0574  0.4828  0.0088  -1.8618   0.0000  -0.0182
  -4.100  -0.2103   0.00514   0.00108  -0.0574  0.4746  0.0097  -1.7742   0.0000  -0.0319
  -4.000  -0.1991   0.00513   0.00106  -0.0575  0.4697  0.0106  -1.6869   0.0000  -0.0477
  -3.900  -0.1881   0.00511   0.00103  -0.0575  0.4631  0.0124  -1.6018   0.0000  -0.0650
  -3.800  -0.1769   0.00510   0.00102  -0.0576  0.4594  0.0130  -1.5168   0.0000  -0.0851
  -3.700  -0.1658   0.00509   0.00100  -0.0576  0.4523  0.0145  -1.4340   0.0000  -0.1073
  -3.500  -0.1436   0.00505   0.00097  -0.0577  0.4438  0.0183  -1.2902   0.0000  -0.1627
  -3.400  -0.1323   0.00503   0.00095  -0.0578  0.4396  0.0202  -1.2193   0.0000  -0.1980
  -3.300  -0.1211   0.00501   0.00093  -0.0579  0.4369  0.0223  -1.1498   0.0000  -0.2397
  -3.200  -0.1100   0.00500   0.00092  -0.0579  0.4308  0.0248  -1.0819   0.0000  -0.2887
  -3.100  -0.0988   0.00499   0.00090  -0.0580  0.4268  0.0263  -1.0143   0.0000  -0.3504
  -3.000  -0.0877   0.00497   0.00089  -0.0580  0.4224  0.0296  -0.9483   0.0000  -0.4264
  -2.800  -0.0653   0.00494   0.00086  -0.0582  0.4129  0.0352  -0.8192   0.0000  -0.6580
  -2.700  -0.0543   0.00494   0.00085  -0.0582  0.4057  0.0384  -0.7567   0.0000  -0.8422
  -2.600  -0.0432   0.00493   0.00084  -0.0583  0.4007  0.0416  -0.6978   0.0000  -1.1241
  -2.500  -0.0321   0.00493   0.00083  -0.0583  0.3932  0.0441  -0.6500   0.0000  -1.5963
  -2.400  -0.0212   0.00493   0.00082  -0.0583  0.3857  0.0479  -0.6113   0.0000  -2.5508
  -2.300  -0.0100   0.00493   0.00081  -0.0584  0.3795  0.0501  -0.5726   0.0000  -5.6899
  -2.200   0.0009   0.00493   0.00080  -0.0584  0.3705  0.0544  -0.5398   0.0000  64.1303
  -2.100   0.0118   0.00492   0.00080  -0.0584  0.3619  0.0599  -0.5098   0.0000   5.2711
  -2.000   0.0229   0.00491   0.00079  -0.0584  0.3564  0.0660  -0.4861   0.0000   2.8405
  -1.900   0.0336   0.00489   0.00077  -0.0584  0.3485  0.0778  -0.4630   0.0000   2.0092
  -1.800   0.0445   0.00488   0.00077  -0.0584  0.3414  0.0852  -0.4399   0.0000   1.5781
  -1.700   0.0557   0.00488   0.00077  -0.0585  0.3360  0.0892  -0.4164   0.0000   1.3113
  -1.600   0.0666   0.00489   0.00076  -0.0585  0.3269  0.0935  -0.3957   0.0000   1.1366
  -1.500   0.0775   0.00488   0.00076  -0.0585  0.3197  0.1016  -0.3886   0.0000   1.0117
  -1.400   0.0886   0.00487   0.00076  -0.0586  0.3136  0.1095  -0.3931   0.0000   0.9167
  -1.300   0.0995   0.00488   0.00075  -0.0586  0.3045  0.1145  -0.3981   0.0000   0.8432
  -1.200   0.1103   0.00488   0.00076  -0.0586  0.2957  0.1214  -0.4031   0.0000   0.7844
  -1.100   0.1213   0.00488   0.00075  -0.0586  0.2904  0.1299  -0.4082   0.0000   0.7358
  -1.000   0.1324   0.00487   0.00075  -0.0587  0.2843  0.1378  -0.4137   0.0000   0.6953
  -0.900   0.1436   0.00486   0.00075  -0.0587  0.2818  0.1448  -0.4195   0.0000   0.6607
  -0.800   0.1548   0.00487   0.00075  -0.0588  0.2767  0.1474  -0.4254   0.0000   0.6311
  -0.700   0.1661   0.00486   0.00075  -0.0589  0.2736  0.1520  -0.4314   0.0000   0.6054
  -0.600   0.1774   0.00486   0.00075  -0.0590  0.2708  0.1553  -0.4376   0.0000   0.5830
  -0.500   0.1884   0.00488   0.00075  -0.0590  0.2636  0.1597  -0.4439   0.0000   0.5634
  -0.400   0.1994   0.00489   0.00076  -0.0591  0.2572  0.1638  -0.4502   0.0000   0.5460
  -0.300   0.2107   0.00490   0.00076  -0.0591  0.2511  0.1667  -0.4569   0.0000   0.5304
  -0.200   0.2216   0.00491   0.00077  -0.0591  0.2426  0.1731  -0.4640   0.0000   0.5164
  -0.100   0.2324   0.00492   0.00077  -0.0592  0.2361  0.1828  -0.4710   0.0000   0.5038
   0.000   0.2435   0.00490   0.00077  -0.0592  0.2321  0.1947  -0.4779   0.0000   0.4922
   0.100   0.2544   0.00490   0.00078  -0.0592  0.2256  0.2067  -0.4871   0.0000   0.4817
   0.200   0.2655   0.00490   0.00078  -0.0593  0.2212  0.2140  -0.4931   0.0000   0.4720
   0.400   0.2876   0.00493   0.00080  -0.0593  0.2083  0.2239  -0.5103   0.0000   0.4549
   0.600   0.3097   0.00496   0.00082  -0.0594  0.1962  0.2341  -0.5309   0.0000   0.4402
   0.700   0.3209   0.00496   0.00082  -0.0595  0.1937  0.2418  -0.5379   0.0000   0.4336
   0.800   0.3319   0.00496   0.00083  -0.0595  0.1886  0.2520  -0.5481   0.0000   0.4274
   0.900   0.3430   0.00495   0.00084  -0.0596  0.1850  0.2622  -0.5589   0.0000   0.4217
   1.000   0.3538   0.00497   0.00085  -0.0596  0.1768  0.2730  -0.5701   0.0000   0.4163
   1.200   0.3754   0.00500   0.00088  -0.0596  0.1620  0.2915  -0.5920   0.0000   0.4064
   1.300   0.3865   0.00502   0.00089  -0.0597  0.1574  0.2985  -0.5980   0.0000   0.4019
   1.400   0.3976   0.00502   0.00090  -0.0597  0.1537  0.3076  -0.6100   0.0000   0.3976
   1.500   0.4087   0.00501   0.00091  -0.0598  0.1514  0.3183  -0.6234   0.0000   0.3936
   1.700   0.4308   0.00500   0.00093  -0.0599  0.1466  0.3402  -0.6535   0.0000   0.3861
   1.900   0.4530   0.00502   0.00095  -0.0600  0.1393  0.3570  -0.6838   0.0000   0.3794
   2.000   0.4641   0.00504   0.00097  -0.0600  0.1343  0.3626  -0.6994   0.0000   0.3763
   2.100   0.4750   0.00508   0.00099  -0.0600  0.1264  0.3666  -0.7165   0.0000   0.3733
   2.300   0.4967   0.00516   0.00103  -0.0600  0.1108  0.3733  -0.7530   0.0000   0.3676
   2.400   0.5077   0.00520   0.00106  -0.0601  0.1046  0.3743  -0.7720   0.0000   0.3649
   2.500   0.5187   0.00523   0.00108  -0.0601  0.1011  0.3789  -0.7911   0.0000   0.3624
   2.800   0.5513   0.00530   0.00114  -0.0602  0.0847  0.4065  -0.8576   0.0000   0.3554
   2.900   0.5620   0.00532   0.00117  -0.0601  0.0790  0.4180  -0.8808   0.0000   0.3532
   3.000   0.5728   0.00534   0.00119  -0.0601  0.0743  0.4299  -0.9042   0.0000   0.3511
   3.100   0.5838   0.00534   0.00121  -0.0602  0.0717  0.4425  -0.9280   0.0000   0.3491
   3.200   0.5946   0.00535   0.00123  -0.0602  0.0689  0.4544  -0.9544   0.0000   0.3472
   3.300   0.6056   0.00536   0.00125  -0.0602  0.0659  0.4661  -0.9811   0.0000   0.3454
   3.400   0.6163   0.00539   0.00128  -0.0602  0.0606  0.4772  -1.0105   0.0000   0.3435
   3.500   0.6270   0.00542   0.00131  -0.0602  0.0555  0.4884  -1.0467   0.0000   0.3418
   3.600   0.6377   0.00544   0.00134  -0.0602  0.0522  0.5007  -1.0834   0.0000   0.3400
   3.700   0.6487   0.00544   0.00136  -0.0602  0.0501  0.5133  -1.1233   0.0000   0.3384
   3.800   0.6595   0.00546   0.00139  -0.0603  0.0480  0.5244  -1.1749   0.0000   0.3368
   3.900   0.6705   0.00548   0.00141  -0.0603  0.0452  0.5345  -1.2273   0.0000   0.3353
   4.000   0.6813   0.00551   0.00144  -0.0603  0.0427  0.5427  -1.2800   0.0000   0.3338
   4.200   0.7030   0.00556   0.00150  -0.0603  0.0371  0.5597  -1.3943   0.0000   0.3309
   4.300   0.7139   0.00560   0.00154  -0.0603  0.0342  0.5647  -1.4542   0.0000   0.3296
   4.400   0.7245   0.00565   0.00158  -0.0603  0.0296  0.5721  -1.5140   0.0000   0.3282
   4.500   0.7354   0.00569   0.00162  -0.0603  0.0266  0.5759  -1.5754   0.0000   0.3269
   4.600   0.7463   0.00573   0.00165  -0.0603  0.0243  0.5810  -1.6377   0.0000   0.3256
   4.700   0.7571   0.00577   0.00168  -0.0604  0.0229  0.5858  -1.7007   0.0000   0.3244
   4.800   0.7681   0.00581   0.00172  -0.0604  0.0208  0.5893  -1.7652   0.0000   0.3232
   4.900   0.7789   0.00584   0.00175  -0.0604  0.0198  0.5962  -1.8359   0.0000   0.3221
   5.000   0.7898   0.00588   0.00179  -0.0604  0.0180  0.6002  -1.9127   0.0000   0.3209
   5.200   0.8115   0.00595   0.00187  -0.0605  0.0158  0.6127  -2.0737   0.0000   0.3187
   5.300   0.8223   0.00598   0.00190  -0.0605  0.0145  0.6208  -2.1556   0.0000   0.3177
   5.400   0.8332   0.00602   0.00194  -0.0605  0.0136  0.6258  -2.2387   0.0000   0.3166
   5.500   0.8440   0.00606   0.00198  -0.0605  0.0124  0.6329  -2.3226   0.0000   0.3156
   5.600   0.8549   0.00609   0.00202  -0.0605  0.0120  0.6381  -2.4084   0.0000   0.3147
   5.700   0.8657   0.00612   0.00205  -0.0606  0.0115  0.6447  -2.4947   0.0000   0.3137
   5.800   0.8765   0.00617   0.00210  -0.0605  0.0105  0.6499  -2.5815   0.0000   0.3127
   5.900   0.8873   0.00620   0.00214  -0.0606  0.0096  0.6560  -2.6697   0.0000   0.3118
   6.000   0.8981   0.00625   0.00218  -0.0606  0.0093  0.6593  -2.7596   0.0000   0.3109
   6.100   0.9089   0.00629   0.00223  -0.0606  0.0088  0.6652  -2.8497   0.0000   0.3100
   6.200   0.9197   0.00633   0.00227  -0.0606  0.0083  0.6686  -2.9411   0.0000   0.3091
   6.300   0.9305   0.00637   0.00231  -0.0606  0.0078  0.6735  -3.0338   0.0000   0.3083
   6.400   0.9413   0.00641   0.00235  -0.0606  0.0075  0.6780  -3.1275   0.0000   0.3074
   6.500   0.9522   0.00645   0.00239  -0.0607  0.0074  0.6799  -3.2229   0.0000   0.3066
   6.600   0.9631   0.00649   0.00243  -0.0607  0.0074  0.6826  -3.3192   0.0000   0.3058
   6.700   0.9739   0.00653   0.00247  -0.0607  0.0073  0.6862  -3.4163   0.0000   0.3050
   6.800   0.9847   0.00658   0.00252  -0.0607  0.0070  0.6890  -3.5147   0.0000   0.3042
   6.900   0.9954   0.00663   0.00257  -0.0607  0.0067  0.6907  -3.6224   0.0000   0.3035
   7.000   1.0061   0.00669   0.00262  -0.0607  0.0064  0.6921  -3.7311   0.0000   0.3027
   7.100   1.0168   0.00674   0.00267  -0.0607  0.0060  0.6957  -3.8412   0.0000   0.3020
   7.200   1.0275   0.00678   0.00271  -0.0607  0.0056  0.6987  -3.9525   0.0000   0.3012
   7.300   1.0383   0.00683   0.00276  -0.0607  0.0055  0.7009  -4.0655   0.0000   0.3005
   7.400   1.0491   0.00688   0.00280  -0.0608  0.0055  0.7021  -4.1799   0.0000   0.2998
   7.500   1.0598   0.00693   0.00285  -0.0608  0.0054  0.7038  -4.2954   0.0000   0.2991
   7.600   1.0705   0.00698   0.00290  -0.0608  0.0054  0.7071  -4.4118   0.0000   0.2984
   7.700   1.0811   0.00703   0.00295  -0.0607  0.0052  0.7097  -4.5290   0.0000   0.2977
   7.800   1.0916   0.00709   0.00301  -0.0607  0.0049  0.7117  -4.6468   0.0000   0.2970
   7.900   1.1021   0.00716   0.00307  -0.0607  0.0046  0.7128  -4.7654   0.0000   0.2963
   8.000   1.1127   0.00722   0.00313  -0.0607  0.0043  0.7135  -4.8857   0.0000   0.2957
   8.100   1.1233   0.00728   0.00318  -0.0606  0.0040  0.7151  -5.0074   0.0000   0.2950
   8.200   1.1338   0.00733   0.00324  -0.0606  0.0039  0.7177  -5.1306   0.0000   0.2944
   8.300   1.1444   0.00739   0.00329  -0.0606  0.0039  0.7198  -5.2550   0.0000   0.2937
   8.400   1.1549   0.00744   0.00334  -0.0606  0.0038  0.7217  -5.3806   0.0000   0.2931
   8.500   1.1655   0.00750   0.00340  -0.0606  0.0038  0.7231  -5.5072   0.0000   0.2925
   8.600   1.1759   0.00757   0.00346  -0.0605  0.0037  0.7241  -5.6347   0.0000   0.2919
   8.700   1.1863   0.00764   0.00353  -0.0605  0.0035  0.7253  -5.7627   0.0000   0.2912
   8.800   1.1966   0.00771   0.00360  -0.0604  0.0033  0.7281  -5.8911   0.0000   0.2906
   8.900   1.2069   0.00778   0.00366  -0.0603  0.0032  0.7305  -6.0307   0.0000   0.2900
   9.000   1.2172   0.00784   0.00373  -0.0603  0.0030  0.7325  -6.1724   0.0000   0.2894
   9.100   1.2275   0.00791   0.00379  -0.0602  0.0029  0.7338  -6.3158   0.0000   0.2888
   9.200   1.2379   0.00798   0.00385  -0.0602  0.0027  0.7346  -6.4605   0.0000   0.2882
   9.300   1.2482   0.00805   0.00392  -0.0601  0.0026  0.7352  -6.6065   0.0000   0.2876
   9.400   1.2586   0.00811   0.00398  -0.0601  0.0025  0.7357  -6.7537   0.0000   0.2871
   9.500   1.2689   0.00818   0.00405  -0.0600  0.0025  0.7377  -6.9027   0.0000   0.2865
   9.600   1.2792   0.00824   0.00411  -0.0600  0.0025  0.7396  -7.0529   0.0000   0.2859
   9.700   1.2894   0.00831   0.00417  -0.0599  0.0025  0.7412  -7.2043   0.0000   0.2854
   9.800   1.2997   0.00837   0.00424  -0.0598  0.0025  0.7426  -7.3569   0.0000   0.2848
   9.900   1.3099   0.00844   0.00430  -0.0598  0.0025  0.7438  -7.5108   0.0000   0.2842
  10.000   1.3201   0.00851   0.00437  -0.0597  0.0025  0.7448  -7.6659   0.0000   0.2837
  10.100   1.3303   0.00858   0.00444  -0.0596  0.0025  0.7455  -7.8222   0.0000   0.2831
  10.200   1.3404   0.00865   0.00451  -0.0596  0.0025  0.7460  -7.9798   0.0000   0.2826
  10.300   1.3506   0.00872   0.00458  -0.0595  0.0025  0.7467  -8.1384   0.0000   0.2820
  10.400   1.3606   0.00879   0.00465  -0.0594  0.0025  0.7486  -8.2981   0.0000   0.2815
  10.500   1.3707   0.00887   0.00472  -0.0593  0.0025  0.7505  -8.4589   0.0000   0.2810
  10.600   1.3807   0.00894   0.00479  -0.0592  0.0025  0.7520  -8.6207   0.0000   0.2804
  10.700   1.3907   0.00901   0.00486  -0.0591  0.0025  0.7533  -8.7837   0.0000   0.2799
  10.800   1.4006   0.00909   0.00494  -0.0590  0.0025  0.7545  -8.9479   0.0000   0.2794
  10.900   1.4105   0.00916   0.00501  -0.0589  0.0025  0.7553  -9.1131   0.0000   0.2788
  11.000   1.4204   0.00924   0.00509  -0.0587  0.0025  0.7559  -9.2794   0.0000   0.2783
  11.100   1.4303   0.00932   0.00517  -0.0586  0.0024  0.7564  -9.4467   0.0000   0.2778
  11.200   1.4401   0.00941   0.00525  -0.0585  0.0024  0.7567  -9.6150   0.0000   0.2772
  11.300   1.4498   0.00949   0.00533  -0.0584  0.0024  0.7570  -9.7842   0.0000   0.2767
  11.400   1.4595   0.00958   0.00541  -0.0582  0.0024  0.7581  -9.9541   0.0000   0.2762
  11.500   1.4691   0.00967   0.00550  -0.0580  0.0023  0.7597  -10.1244   0.0000   0.2756
  11.600   1.4786   0.00976   0.00560  -0.0579  0.0023  0.7612  -10.2951   0.0000   0.2751
  11.700   1.4880   0.00986   0.00569  -0.0577  0.0022  0.7625  -10.4663   0.0000   0.2746
  11.800   1.4973   0.00996   0.00579  -0.0575  0.0021  0.7636  -10.6478   0.0000   0.2740
  11.900   1.5066   0.01006   0.00589  -0.0572  0.0021  0.7647  -10.8321   0.0000   0.2735
  12.000   1.5159   0.01016   0.00599  -0.0570  0.0020  0.7655  -11.0176   0.0000   0.2729
  12.100   1.5252   0.01026   0.00609  -0.0568  0.0019  0.7662  -11.2043   0.0000   0.2724
  12.200   1.5345   0.01036   0.00619  -0.0566  0.0019  0.7667  -11.3924   0.0000   0.2719
  12.300   1.5437   0.01047   0.00629  -0.0564  0.0018  0.7671  -11.5817   0.0000   0.2713
  12.400   1.5529   0.01057   0.00639  -0.0561  0.0017  0.7674  -11.7720   0.0000   0.2708
  12.500   1.5620   0.01067   0.00649  -0.0559  0.0016  0.7676  -11.9633   0.0000   0.2703
  12.600   1.5711   0.01077   0.00659  -0.0557  0.0016  0.7686  -12.1555   0.0000   0.2697
  12.700   1.5801   0.01087   0.00669  -0.0554  0.0015  0.7701  -12.3485   0.0000   0.2692
  12.800   1.5891   0.01097   0.00679  -0.0551  0.0015  0.7714  -12.5423   0.0000   0.2686
  12.900   1.5980   0.01107   0.00689  -0.0549  0.0015  0.7726  -12.7374   0.0000   0.2681
  13.000   1.6069   0.01117   0.00699  -0.0546  0.0015  0.7737  -12.9334   0.0000   0.2676
  13.100   1.6152   0.01127   0.00709  -0.0542  0.0015  0.7747  -13.1253   0.0000   0.2670
  13.200   1.6229   0.01136   0.00718  -0.0537  0.0015  0.7755  -13.3124   0.0000   0.2663
  13.300   1.6308   0.01146   0.00728  -0.0532  0.0015  0.7763  -13.5027   0.0000   0.2657
  13.400   1.6388   0.01156   0.00739  -0.0527  0.0015  0.7768  -13.6950   0.0000   0.2651
  13.500   1.6467   0.01167   0.00749  -0.0523  0.0015  0.7773  -13.8884   0.0000   0.2645
  13.600   1.6546   0.01178   0.00760  -0.0518  0.0015  0.7776  -14.0825   0.0000   0.2638
  13.700   1.6625   0.01189   0.00772  -0.0513  0.0015  0.7779  -14.2771   0.0000   0.2632
  13.800   1.6703   0.01200   0.00783  -0.0509  0.0015  0.7781  -14.4721   0.0000   0.2626
  13.900   1.6779   0.01212   0.00795  -0.0504  0.0015  0.7788  -14.6674   0.0000   0.2620
  14.000   1.6855   0.01224   0.00807  -0.0499  0.0015  0.7801  -14.8631   0.0000   0.2614
  14.100   1.6931   0.01236   0.00819  -0.0494  0.0015  0.7815  -15.0592   0.0000   0.2608
  14.200   1.7005   0.01248   0.00831  -0.0488  0.0014  0.7827  -15.2555   0.0000   0.2602
  14.300   1.7079   0.01260   0.00844  -0.0483  0.0014  0.7838  -15.4524   0.0000   0.2595
  14.400   1.7152   0.01273   0.00857  -0.0478  0.0014  0.7848  -15.6497   0.0000   0.2589
  14.500   1.7225   0.01286   0.00870  -0.0473  0.0014  0.7857  -15.8474   0.0000   0.2583
  14.600   1.7297   0.01299   0.00884  -0.0467  0.0014  0.7865  -16.0457   0.0000   0.2577
  14.700   1.7368   0.01313   0.00897  -0.0462  0.0014  0.7871  -16.2443   0.0000   0.2571
  14.800   1.7439   0.01326   0.00911  -0.0457  0.0014  0.7876  -16.4435   0.0000   0.2565
  14.900   1.7509   0.01341   0.00926  -0.0451  0.0014  0.7880  -16.6431   0.0000   0.2559
  15.000   1.7579   0.01355   0.00941  -0.0446  0.0014  0.7883  -16.8430   0.0000   0.2553
  15.100   1.7648   0.01370   0.00956  -0.0440  0.0014  0.7885  -17.0431   0.0000   0.2547
  15.200   1.7717   0.01385   0.00971  -0.0434  0.0014  0.7887  -17.2440   0.0000   0.2541
  15.300   1.7784   0.01401   0.00987  -0.0429  0.0014  0.7898  -17.4443   0.0000   0.2534
  15.400   1.7851   0.01417   0.01003  -0.0423  0.0014  0.7912  -17.6452   0.0000   0.2528
  15.500   1.7917   0.01433   0.01020  -0.0417  0.0014  0.7925  -17.8463   0.0000   0.2522
  15.600   1.7982   0.01450   0.01037  -0.0411  0.0014  0.7936  -18.0473   0.0000   0.2516
  15.700   1.8046   0.01467   0.01055  -0.0405  0.0014  0.7947  -18.2476   0.0000   0.2510
  15.800   1.8108   0.01485   0.01074  -0.0399  0.0014  0.7956  -18.4478   0.0000   0.2504
  15.900   1.8171   0.01504   0.01093  -0.0393  0.0013  0.7965  -18.6484   0.0000   0.2498
  16.000   1.8231   0.01524   0.01113  -0.0387  0.0013  0.7973  -18.8476   0.0000   0.2492
  16.100   1.8290   0.01544   0.01133  -0.0381  0.0013  0.7979  -19.0460   0.0000   0.2485
  16.200   1.8347   0.01565   0.01155  -0.0374  0.0013  0.7984  -19.2428   0.0000   0.2479
  16.300   1.8405   0.01587   0.01177  -0.0368  0.0012  0.7988  -19.4410   0.0000   0.2473
  16.400   1.8461   0.01610   0.01200  -0.0361  0.0012  0.7991  -19.6379   0.0000   0.2467
  16.500   1.8516   0.01633   0.01224  -0.0354  0.0012  0.8003  -19.8352   0.0000   0.2461
  16.600   1.8569   0.01656   0.01248  -0.0347  0.0012  0.8019  -20.0300   0.0000   0.2454
  16.700   1.8622   0.01680   0.01273  -0.0341  0.0011  0.8033  -20.2258   0.0000   0.2448
  16.800   1.8674   0.01705   0.01298  -0.0334  0.0011  0.8046  -20.4217   0.0000   0.2442
  16.900   1.8726   0.01730   0.01324  -0.0327  0.0011  0.8057  -20.6180   0.0000   0.2435
  17.000   1.8779   0.01756   0.01350  -0.0321  0.0011  0.8067  -20.8159   0.0000   0.2429
  17.100   1.8829   0.01782   0.01377  -0.0314  0.0010  0.8076  -21.0112   0.0000   0.2423
  17.200   1.8880   0.01808   0.01404  -0.0307  0.0010  0.8083  -21.2085   0.0000   0.2417
  17.300   1.8928   0.01835   0.01432  -0.0300  0.0010  0.8089  -21.4038   0.0000   0.2411
  17.400   1.8978   0.01862   0.01459  -0.0294  0.0010  0.8093  -21.6020   0.0000   0.2405
  17.500   1.9027   0.01890   0.01488  -0.0287  0.0009  0.8105  -21.7989   0.0000   0.2399
  17.600   1.9075   0.01919   0.01518  -0.0281  0.0009  0.8125  -21.9960   0.0000   0.2393
  17.700   1.9124   0.01948   0.01547  -0.0274  0.0009  0.8141  -22.1945   0.0000   0.2387
  17.800   1.9169   0.01978   0.01578  -0.0268  0.0009  0.8155  -22.3889   0.0000   0.2381
  17.900   1.9215   0.02008   0.01609  -0.0261  0.0009  0.8168  -22.5855   0.0000   0.2375
  18.000   1.9257   0.02039   0.01641  -0.0254  0.0008  0.8179  -22.7783   0.0000   0.2369
  18.100   1.9302   0.02071   0.01674  -0.0248  0.0008  0.8187  -22.9745   0.0000   0.2363
  18.200   1.9345   0.02104   0.01707  -0.0241  0.0008  0.8194  -23.1696   0.0000   0.2357
  18.300   1.9387   0.02138   0.01742  -0.0235  0.0008  0.8206  -23.3635   0.0000   0.2351
  18.400   1.9430   0.02171   0.01777  -0.0229  0.0008  0.8229  -23.5597   0.0000   0.2346
  18.500   1.9469   0.02207   0.01814  -0.0222  0.0007  0.8248  -23.7508   0.0000   0.2340
  18.600   1.9510   0.02242   0.01850  -0.0216  0.0007  0.8265  -23.9461   0.0000   0.2334
  18.700   1.9546   0.02280   0.01888  -0.0209  0.0007  0.8279  -24.1338   0.0000   0.2328
  18.800   1.9583   0.02317   0.01927  -0.0203  0.0007  0.8291  -24.3242   0.0000   0.2322
  18.900   1.9619   0.02356   0.01966  -0.0196  0.0007  0.8307  -24.5149   0.0000   0.2316
  19.000   1.9654   0.02395   0.02007  -0.0190  0.0007  0.8338  -24.7044   0.0000   0.2310
  19.100   1.9692   0.02434   0.02047  -0.0184  0.0007  0.8363  -24.8975   0.0000   0.2305
  19.200   1.9724   0.02477   0.02091  -0.0177  0.0007  0.8385  -25.0839   0.0000   0.2299
  19.300   1.9760   0.02518   0.02134  -0.0171  0.0007  0.8418  -25.2764   0.0000   0.2294
  19.400   1.9789   0.02562   0.02180  -0.0165  0.0007  0.8463  -25.4606   0.0000   0.2288
  19.500   1.9822   0.02606   0.02225  -0.0159  0.0007  0.8503  -25.6490   0.0000   0.2282
  19.600   1.9850   0.02651   0.02272  -0.0153  0.0007  0.8564  -25.8325   0.0000   0.2277
  19.700   1.9875   0.02698   0.02321  -0.0146  0.0007  0.8646  -26.0121   0.0000   0.2271
  19.800   1.9902   0.02744   0.02369  -0.0140  0.0007  0.8745  -26.1939   0.0000   0.2265
  19.900   1.9922   0.02792   0.02422  -0.0133  0.0007  0.8901  -26.3672   0.0000   0.2259
  20.000   1.9925   0.02818   0.02470  -0.0121  0.0007  1.0000  -26.5166   0.0000   0.2251


