xflr5 v6.32

 Calculated polar for: finalfoil mod1

 1 1 Reynolds number fixed          Mach number fixed         

 xtrf =   1.000 (top)        1.000 (bottom)
 Mach =   0.000     Re =     2.000 e 6     Ncrit =   9.000

  alpha     CL        CD       CDp       Cm    Top Xtr Bot Xtr   Cpmin    Chinge    XCp    
 ------- -------- --------- --------- -------- ------- ------- -------- --------- ---------
 -15.000  -0.9018   0.06036   0.05842  -0.0640  1.0000  0.0038  -12.1539   0.0000   0.1590
 -14.900  -0.9137   0.05666   0.05465  -0.0665  1.0000  0.0037  -12.2979   0.0000   0.1575
 -14.800  -0.9240   0.05349   0.05141  -0.0685  1.0000  0.0037  -12.4079   0.0000   0.1564
 -14.700  -0.9331   0.05071   0.04856  -0.0702  1.0000  0.0037  -12.4927   0.0000   0.1557
 -14.600  -0.9413   0.04825   0.04603  -0.0715  1.0000  0.0037  -12.5582   0.0000   0.1553
 -14.500  -0.9486   0.04606   0.04377  -0.0725  1.0000  0.0037  -12.6075   0.0000   0.1551
 -14.400  -0.9551   0.04408   0.04172  -0.0733  1.0000  0.0037  -12.6428   0.0000   0.1551
 -14.300  -0.9608   0.04226   0.03985  -0.0739  1.0000  0.0037  -12.6655   0.0000   0.1552
 -14.200  -0.9659   0.04061   0.03814  -0.0743  1.0000  0.0037  -12.6775   0.0000   0.1555
 -14.100  -0.9704   0.03910   0.03656  -0.0745  1.0000  0.0037  -12.6799   0.0000   0.1559
 -14.000  -0.9743   0.03771   0.03511  -0.0746  1.0000  0.0037  -12.6728   0.0000   0.1563
 -13.900  -0.9776   0.03642   0.03376  -0.0746  1.0000  0.0037  -12.6571   0.0000   0.1568
 -13.800  -0.9804   0.03523   0.03251  -0.0745  1.0000  0.0038  -12.6341   0.0000   0.1574
 -13.700  -0.9827   0.03412   0.03135  -0.0743  1.0000  0.0038  -12.6036   0.0000   0.1580
 -13.600  -0.9845   0.03309   0.03027  -0.0740  1.0000  0.0038  -12.5662   0.0000   0.1586
 -13.500  -0.9859   0.03214   0.02926  -0.0737  1.0000  0.0038  -12.5228   0.0000   0.1593
 -13.400  -0.9870   0.03125   0.02832  -0.0732  1.0000  0.0038  -12.4739   0.0000   0.1600
 -13.300  -0.9878   0.03043   0.02744  -0.0727  1.0000  0.0038  -12.4208   0.0000   0.1608
 -13.200  -0.9888   0.02968   0.02665  -0.0721  1.0000  0.0038  -12.3661   0.0000   0.1618
 -13.100  -0.9849   0.02882   0.02573  -0.0724  0.9968  0.0038  -12.2736   0.0000   0.1613
 -13.000  -0.9793   0.02799   0.02484  -0.0730  0.9940  0.0038  -12.1663   0.0000   0.1604
 -12.900  -0.9732   0.02722   0.02401  -0.0736  0.9911  0.0038  -12.0513   0.0000   0.1595
 -12.800  -0.9666   0.02651   0.02324  -0.0742  0.9882  0.0038  -11.9294   0.0000   0.1586
 -12.700  -0.9596   0.02585   0.02253  -0.0747  0.9851  0.0038  -11.8024   0.0000   0.1577
 -12.600  -0.9526   0.02525   0.02188  -0.0750  0.9816  0.0039  -11.6730   0.0000   0.1568
 -12.500  -0.9460   0.02472   0.02129  -0.0752  0.9777  0.0039  -11.5445   0.0000   0.1563
 -12.400  -0.9403   0.02424   0.02077  -0.0751  0.9734  0.0039  -11.4205   0.0000   0.1560
 -12.300  -0.9353   0.02383   0.02030  -0.0747  0.9690  0.0039  -11.3008   0.0000   0.1562
 -12.200  -0.9306   0.02345   0.01988  -0.0742  0.9649  0.0039  -11.1815   0.0000   0.1565
 -12.100  -0.9257   0.02310   0.01948  -0.0737  0.9613  0.0039  -11.0593   0.0000   0.1568
 -12.000  -0.9381   0.02123   0.01737  -0.0712  0.9548  0.0040  -11.2671   0.0000   0.1606
 -11.900  -0.9412   0.02013   0.01614  -0.0697  0.9508  0.0041  -11.3113   0.0000   0.1627
 -11.700  -0.9335   0.01891   0.01477  -0.0683  0.9456  0.0042  -11.1598   0.0000   0.1639
 -11.600  -0.9274   0.01851   0.01431  -0.0678  0.9434  0.0043  -11.0397   0.0000   0.1640
 -11.500  -0.9205   0.01817   0.01393  -0.0674  0.9416  0.0043  -10.9060   0.0000   0.1641
 -11.400  -0.9131   0.01786   0.01359  -0.0671  0.9395  0.0044  -10.7638   0.0000   0.1639
 -11.300  -0.9054   0.01759   0.01328  -0.0668  0.9377  0.0044  -10.6168   0.0000   0.1638
 -11.200  -0.8974   0.01733   0.01300  -0.0665  0.9362  0.0045  -10.4668   0.0000   0.1636
 -11.100  -0.8892   0.01708   0.01272  -0.0663  0.9344  0.0045  -10.3144   0.0000   0.1632
 -11.000  -0.8808   0.01684   0.01246  -0.0661  0.9327  0.0045  -10.1615   0.0000   0.1629
 -10.900  -0.8723   0.01661   0.01220  -0.0658  0.9312  0.0046  -10.0088   0.0000   0.1626
 -10.700  -0.8550   0.01616   0.01169  -0.0654  0.9283  0.0047  -9.7041   0.0000   0.1617
 -10.600  -0.8463   0.01594   0.01145  -0.0653  0.9267  0.0047  -9.5529   0.0000   0.1613
 -10.500  -0.8375   0.01572   0.01120  -0.0651  0.9253  0.0048  -9.4029   0.0000   0.1608
 -10.400  -0.8286   0.01550   0.01095  -0.0649  0.9240  0.0048  -9.2540   0.0000   0.1603
 -10.300  -0.8197   0.01528   0.01070  -0.0647  0.9227  0.0049  -9.1057   0.0000   0.1598
 -10.200  -0.8107   0.01506   0.01046  -0.0645  0.9211  0.0049  -8.9583   0.0000   0.1592
 -10.100  -0.8016   0.01484   0.01022  -0.0644  0.9197  0.0050  -8.8120   0.0000   0.1586
 -10.000  -0.7925   0.01463   0.00997  -0.0642  0.9184  0.0050  -8.6665   0.0000   0.1580
  -9.900  -0.7834   0.01442   0.00973  -0.0641  0.9172  0.0051  -8.5219   0.0000   0.1574
  -9.800  -0.7741   0.01421   0.00950  -0.0639  0.9159  0.0051  -8.3776   0.0000   0.1567
  -9.700  -0.7648   0.01400   0.00927  -0.0638  0.9145  0.0052  -8.2338   0.0000   0.1560
  -9.600  -0.7555   0.01380   0.00904  -0.0636  0.9130  0.0052  -8.0905   0.0000   0.1552
  -9.500  -0.7461   0.01360   0.00882  -0.0635  0.9117  0.0053  -7.9478   0.0000   0.1544
  -9.400  -0.7366   0.01341   0.00860  -0.0634  0.9105  0.0053  -7.8053   0.0000   0.1536
  -9.300  -0.7271   0.01323   0.00839  -0.0632  0.9094  0.0054  -7.6631   0.0000   0.1528
  -9.200  -0.7174   0.01305   0.00818  -0.0631  0.9080  0.0054  -7.5209   0.0000   0.1518
  -9.100  -0.7078   0.01287   0.00798  -0.0630  0.9066  0.0055  -7.3790   0.0000   0.1508
  -9.000  -0.6980   0.01270   0.00779  -0.0629  0.9053  0.0055  -7.2373   0.0000   0.1498
  -8.900  -0.6882   0.01253   0.00761  -0.0628  0.9042  0.0055  -7.0959   0.0000   0.1488
  -8.800  -0.6783   0.01238   0.00743  -0.0627  0.9031  0.0056  -6.9546   0.0000   0.1476
  -8.700  -0.6683   0.01223   0.00726  -0.0627  0.9020  0.0056  -6.8134   0.0000   0.1465
  -8.600  -0.6583   0.01209   0.00710  -0.0626  0.9007  0.0056  -6.6722   0.0000   0.1452
  -8.500  -0.6482   0.01195   0.00695  -0.0626  0.8994  0.0057  -6.5314   0.0000   0.1438
  -8.400  -0.6392   0.01165   0.00661  -0.0623  0.8980  0.0058  -6.4195   0.0000   0.1429
  -8.300  -0.6306   0.01132   0.00623  -0.0621  0.8968  0.0059  -6.3158   0.0000   0.1421
  -8.200  -0.6212   0.01109   0.00597  -0.0619  0.8956  0.0061  -6.1955   0.0000   0.1410
  -8.100  -0.6113   0.01091   0.00577  -0.0618  0.8945  0.0062  -6.0664   0.0000   0.1396
  -8.000  -0.6012   0.01075   0.00561  -0.0617  0.8932  0.0064  -5.9326   0.0000   0.1381
  -7.900  -0.5910   0.01062   0.00546  -0.0617  0.8919  0.0065  -5.7972   0.0000   0.1364
  -7.800  -0.5807   0.01049   0.00533  -0.0617  0.8907  0.0066  -5.6616   0.0000   0.1347
  -7.700  -0.5703   0.01037   0.00520  -0.0616  0.8896  0.0068  -5.5271   0.0000   0.1329
  -7.600  -0.5600   0.01026   0.00507  -0.0616  0.8885  0.0069  -5.3941   0.0000   0.1310
  -7.500  -0.5495   0.01015   0.00494  -0.0616  0.8875  0.0071  -5.2624   0.0000   0.1290
  -7.400  -0.5391   0.01004   0.00482  -0.0615  0.8863  0.0072  -5.1317   0.0000   0.1269
  -7.300  -0.5286   0.00993   0.00471  -0.0615  0.8850  0.0074  -5.0020   0.0000   0.1247
  -7.200  -0.5180   0.00983   0.00459  -0.0615  0.8838  0.0075  -4.8729   0.0000   0.1224
  -7.100  -0.5074   0.00973   0.00449  -0.0615  0.8826  0.0076  -4.7442   0.0000   0.1200
  -7.000  -0.4967   0.00965   0.00439  -0.0615  0.8815  0.0077  -4.6151   0.0000   0.1174
  -6.900  -0.4864   0.00952   0.00424  -0.0615  0.8804  0.0079  -4.4952   0.0000   0.1149
  -6.800  -0.4763   0.00936   0.00405  -0.0614  0.8793  0.0083  -4.3815   0.0000   0.1125
  -6.700  -0.4659   0.00924   0.00393  -0.0614  0.8781  0.0087  -4.2595   0.0000   0.1097
  -6.600  -0.4553   0.00914   0.00383  -0.0614  0.8768  0.0090  -4.1362   0.0000   0.1066
  -6.500  -0.4446   0.00904   0.00374  -0.0614  0.8755  0.0093  -4.0140   0.0000   0.1034
  -6.400  -0.4339   0.00896   0.00364  -0.0614  0.8743  0.0096  -3.8939   0.0000   0.1000
  -6.300  -0.4231   0.00887   0.00355  -0.0614  0.8732  0.0099  -3.7753   0.0000   0.0964
  -6.200  -0.4123   0.00880   0.00346  -0.0614  0.8721  0.0102  -3.6575   0.0000   0.0926
  -6.100  -0.4020   0.00866   0.00331  -0.0613  0.8710  0.0111  -3.5501   0.0000   0.0890
  -6.000  -0.3914   0.00856   0.00322  -0.0613  0.8697  0.0119  -3.4396   0.0000   0.0848
  -5.900  -0.3806   0.00848   0.00314  -0.0613  0.8685  0.0126  -3.3390   0.0000   0.0803
  -5.800  -0.3699   0.00838   0.00303  -0.0613  0.8672  0.0138  -3.2428   0.0000   0.0757
  -5.700  -0.3592   0.00828   0.00294  -0.0613  0.8660  0.0151  -3.1437   0.0000   0.0708
  -5.600  -0.3485   0.00820   0.00286  -0.0613  0.8649  0.0165  -3.0456   0.0000   0.0655
  -5.500  -0.3378   0.00811   0.00278  -0.0613  0.8639  0.0184  -2.9475   0.0000   0.0599
  -5.400  -0.3270   0.00803   0.00269  -0.0613  0.8628  0.0205  -2.8501   0.0000   0.0538
  -5.300  -0.3162   0.00794   0.00262  -0.0614  0.8616  0.0229  -2.7528   0.0000   0.0473
  -5.200  -0.3055   0.00785   0.00254  -0.0614  0.8603  0.0260  -2.6568   0.0000   0.0404
  -5.100  -0.2948   0.00775   0.00247  -0.0614  0.8590  0.0299  -2.5619   0.0000   0.0331
  -5.000  -0.2841   0.00766   0.00239  -0.0614  0.8578  0.0346  -2.4679   0.0000   0.0251
  -4.900  -0.2735   0.00757   0.00232  -0.0614  0.8566  0.0397  -2.3752   0.0000   0.0167
  -4.800  -0.2628   0.00747   0.00225  -0.0614  0.8554  0.0457  -2.2835   0.0000   0.0075
  -4.700  -0.2522   0.00738   0.00218  -0.0614  0.8543  0.0523  -2.1929   0.0000  -0.0025
  -4.600  -0.2415   0.00729   0.00211  -0.0614  0.8529  0.0599  -2.1033   0.0000  -0.0134
  -4.500  -0.2308   0.00718   0.00205  -0.0614  0.8515  0.0679  -2.0151   0.0000  -0.0253
  -4.400  -0.2202   0.00708   0.00198  -0.0614  0.8501  0.0769  -1.9280   0.0000  -0.0383
  -4.300  -0.2096   0.00699   0.00192  -0.0614  0.8488  0.0863  -1.8419   0.0000  -0.0526
  -4.200  -0.1990   0.00689   0.00186  -0.0614  0.8476  0.0969  -1.7573   0.0000  -0.0684
  -4.100  -0.1883   0.00680   0.00180  -0.0614  0.8464  0.1081  -1.6737   0.0000  -0.0860
  -4.000  -0.1778   0.00669   0.00174  -0.0614  0.8450  0.1210  -1.5915   0.0000  -0.1056
  -3.900  -0.1673   0.00658   0.00168  -0.0614  0.8435  0.1361  -1.5108   0.0000  -0.1274
  -3.800  -0.1568   0.00646   0.00162  -0.0613  0.8419  0.1524  -1.4316   0.0000  -0.1521
  -3.700  -0.1464   0.00634   0.00157  -0.0613  0.8405  0.1704  -1.3623   0.0000  -0.1800
  -3.600  -0.1361   0.00621   0.00151  -0.0613  0.8391  0.1919  -1.2944   0.0000  -0.2116
  -3.500  -0.1260   0.00606   0.00144  -0.0612  0.8378  0.2167  -1.2281   0.0000  -0.2475
  -3.400  -0.1160   0.00591   0.00138  -0.0611  0.8362  0.2435  -1.1627   0.0000  -0.2898
  -3.300  -0.1059   0.00576   0.00132  -0.0610  0.8345  0.2711  -1.0983   0.0000  -0.3399
  -3.200  -0.0959   0.00560   0.00126  -0.0609  0.8328  0.3002  -1.0349   0.0000  -0.3998
  -3.100  -0.0862   0.00542   0.00120  -0.0608  0.8311  0.3360  -0.9734   0.0000  -0.4708
  -3.000  -0.0766   0.00524   0.00113  -0.0607  0.8295  0.3736  -0.9129   0.0000  -0.5587
  -2.900  -0.0671   0.00504   0.00107  -0.0605  0.8279  0.4150  -0.8539   0.0000  -0.6688
  -2.800  -0.0576   0.00485   0.00101  -0.0603  0.8260  0.4556  -0.7953   0.0000  -0.8176
  -2.700  -0.0478   0.00468   0.00096  -0.0602  0.8242  0.4916  -0.7371   0.0000  -1.0314
  -2.600  -0.0378   0.00455   0.00092  -0.0600  0.8224  0.5208  -0.6882   0.0000  -1.3677
  -2.500  -0.0274   0.00446   0.00089  -0.0599  0.8207  0.5444  -0.6462   0.0000  -1.9709
  -2.400  -0.0168   0.00439   0.00086  -0.0599  0.8191  0.5621  -0.6080   0.0000  -3.3706
  -2.300  -0.0060   0.00432   0.00084  -0.0599  0.8172  0.5779  -0.5699   0.0000  -9.8667
  -2.200   0.0047   0.00425   0.00082  -0.0599  0.8153  0.5946  -0.5377   0.0000  13.1668
  -2.100   0.0155   0.00420   0.00080  -0.0598  0.8135  0.6103  -0.5079   0.0000   4.1638
  -2.000   0.0264   0.00416   0.00079  -0.0598  0.8118  0.6230  -0.4842   0.0000   2.5455
  -1.900   0.0374   0.00414   0.00077  -0.0598  0.8102  0.6324  -0.4605   0.0000   1.8701
  -1.800   0.0486   0.00410   0.00077  -0.0599  0.8083  0.6400  -0.4369   0.0000   1.4970
  -1.700   0.0598   0.00408   0.00076  -0.0599  0.8063  0.6478  -0.4142   0.0000   1.2631
  -1.600   0.0709   0.00406   0.00075  -0.0600  0.8043  0.6559  -0.3945   0.0000   1.1038
  -1.500   0.0820   0.00404   0.00074  -0.0600  0.8024  0.6629  -0.3920   0.0000   0.9881
  -1.300   0.1045   0.00402   0.00073  -0.0601  0.7985  0.6747  -0.4021   0.0000   0.8294
  -1.200   0.1159   0.00401   0.00072  -0.0602  0.7964  0.6802  -0.4075   0.0000   0.7727
  -1.100   0.1270   0.00400   0.00072  -0.0602  0.7943  0.6852  -0.4130   0.0000   0.7267
  -1.000   0.1382   0.00400   0.00072  -0.0603  0.7923  0.6901  -0.4189   0.0000   0.6880
  -0.900   0.1495   0.00400   0.00072  -0.0603  0.7902  0.6940  -0.4248   0.0000   0.6550
  -0.800   0.1609   0.00399   0.00072  -0.0604  0.7879  0.6975  -0.4309   0.0000   0.6266
  -0.700   0.1723   0.00399   0.00071  -0.0605  0.7854  0.7008  -0.4371   0.0000   0.6019
  -0.600   0.1835   0.00399   0.00071  -0.0605  0.7831  0.7039  -0.4433   0.0000   0.5803
  -0.500   0.1947   0.00399   0.00071  -0.0606  0.7808  0.7076  -0.4498   0.0000   0.5613
  -0.400   0.2061   0.00399   0.00072  -0.0607  0.7782  0.7117  -0.4568   0.0000   0.5442
  -0.300   0.2174   0.00400   0.00072  -0.0607  0.7754  0.7156  -0.4638   0.0000   0.5290
  -0.200   0.2284   0.00400   0.00072  -0.0607  0.7727  0.7198  -0.4707   0.0000   0.5153
  -0.100   0.2398   0.00401   0.00073  -0.0608  0.7699  0.7239  -0.4779   0.0000   0.5028
   0.000   0.2510   0.00401   0.00074  -0.0608  0.7667  0.7274  -0.4857   0.0000   0.4915
   0.100   0.2621   0.00402   0.00075  -0.0609  0.7637  0.7310  -0.4934   0.0000   0.4811
   0.200   0.2734   0.00404   0.00075  -0.0609  0.7606  0.7344  -0.5012   0.0000   0.4716
   0.300   0.2847   0.00404   0.00076  -0.0610  0.7570  0.7371  -0.5092   0.0000   0.4628
   0.400   0.2957   0.00406   0.00077  -0.0610  0.7535  0.7396  -0.5174   0.0000   0.4547
   0.500   0.3069   0.00407   0.00078  -0.0610  0.7502  0.7422  -0.5261   0.0000   0.4472
   0.600   0.3182   0.00409   0.00079  -0.0611  0.7465  0.7446  -0.5354   0.0000   0.4402
   0.800   0.3406   0.00412   0.00080  -0.0611  0.7393  0.7482  -0.5548   0.0000   0.4276
   0.900   0.3517   0.00413   0.00082  -0.0612  0.7352  0.7498  -0.5650   0.0000   0.4219
   1.000   0.3627   0.00416   0.00083  -0.0612  0.7311  0.7514  -0.5752   0.0000   0.4165
   1.100   0.3740   0.00417   0.00084  -0.0612  0.7263  0.7529  -0.5862   0.0000   0.4115
   1.200   0.3849   0.00421   0.00085  -0.0612  0.7210  0.7545  -0.5970   0.0000   0.4067
   1.300   0.3960   0.00423   0.00086  -0.0612  0.7150  0.7560  -0.6080   0.0000   0.4022
   1.400   0.4068   0.00427   0.00087  -0.0612  0.7091  0.7574  -0.6197   0.0000   0.3979
   1.500   0.4176   0.00429   0.00089  -0.0612  0.7022  0.7587  -0.6330   0.0000   0.3939
   1.600   0.4284   0.00432   0.00091  -0.0611  0.6951  0.7600  -0.6474   0.0000   0.3900
   1.700   0.4391   0.00436   0.00092  -0.0611  0.6877  0.7614  -0.6623   0.0000   0.3863
   1.900   0.4603   0.00446   0.00097  -0.0609  0.6698  0.7642  -0.6921   0.0000   0.3794
   2.000   0.4709   0.00451   0.00099  -0.0609  0.6608  0.7655  -0.7084   0.0000   0.3762
   2.100   0.4814   0.00457   0.00101  -0.0608  0.6516  0.7668  -0.7254   0.0000   0.3731
   2.200   0.4919   0.00463   0.00104  -0.0607  0.6415  0.7679  -0.7428   0.0000   0.3701
   2.300   0.5021   0.00469   0.00107  -0.0605  0.6305  0.7691  -0.7612   0.0000   0.3672
   2.400   0.5122   0.00476   0.00111  -0.0604  0.6178  0.7702  -0.7795   0.0000   0.3645
   2.500   0.5221   0.00485   0.00115  -0.0602  0.6035  0.7714  -0.7977   0.0000   0.3618
   2.600   0.5319   0.00495   0.00119  -0.0600  0.5891  0.7726  -0.8168   0.0000   0.3591
   2.700   0.5418   0.00504   0.00123  -0.0598  0.5738  0.7738  -0.8380   0.0000   0.3566
   2.800   0.5515   0.00515   0.00128  -0.0595  0.5577  0.7751  -0.8600   0.0000   0.3542
   2.900   0.5612   0.00527   0.00133  -0.0593  0.5413  0.7763  -0.8823   0.0000   0.3519
   3.000   0.5708   0.00539   0.00139  -0.0591  0.5239  0.7775  -0.9045   0.0000   0.3496
   3.100   0.5804   0.00551   0.00144  -0.0589  0.5074  0.7785  -0.9273   0.0000   0.3474
   3.200   0.5902   0.00561   0.00149  -0.0586  0.4915  0.7796  -0.9524   0.0000   0.3453
   3.300   0.5996   0.00573   0.00155  -0.0584  0.4745  0.7806  -0.9774   0.0000   0.3432
   3.400   0.6092   0.00585   0.00161  -0.0582  0.4570  0.7816  -1.0035   0.0000   0.3412
   3.500   0.6186   0.00599   0.00168  -0.0579  0.4395  0.7826  -1.0341   0.0000   0.3393
   3.600   0.6284   0.00610   0.00174  -0.0577  0.4238  0.7836  -1.0690   0.0000   0.3374
   3.700   0.6382   0.00621   0.00179  -0.0575  0.4096  0.7847  -1.1044   0.0000   0.3356
   3.900   0.6575   0.00647   0.00193  -0.0571  0.3784  0.7869  -1.1996   0.0000   0.3322
   4.000   0.6668   0.00662   0.00200  -0.0569  0.3597  0.7879  -1.2482   0.0000   0.3305
   4.200   0.6848   0.00695   0.00216  -0.0562  0.3183  0.7899  -1.3458   0.0000   0.3272
   4.300   0.6938   0.00711   0.00225  -0.0559  0.2984  0.7909  -1.3991   0.0000   0.3256
   4.400   0.7029   0.00726   0.00233  -0.0557  0.2806  0.7918  -1.4543   0.0000   0.3240
   4.500   0.7121   0.00742   0.00242  -0.0554  0.2630  0.7928  -1.5100   0.0000   0.3225
   4.600   0.7211   0.00759   0.00251  -0.0551  0.2448  0.7938  -1.5662   0.0000   0.3211
   4.700   0.7302   0.00776   0.00260  -0.0548  0.2271  0.7948  -1.6230   0.0000   0.3196
   4.800   0.7393   0.00793   0.00269  -0.0545  0.2101  0.7958  -1.6803   0.0000   0.3182
   4.900   0.7486   0.00808   0.00279  -0.0543  0.1956  0.7969  -1.7415   0.0000   0.3169
   5.000   0.7582   0.00822   0.00287  -0.0541  0.1839  0.7979  -1.8076   0.0000   0.3156
   5.100   0.7677   0.00836   0.00295  -0.0539  0.1719  0.7988  -1.8742   0.0000   0.3144
   5.200   0.7771   0.00850   0.00304  -0.0536  0.1600  0.7997  -1.9409   0.0000   0.3132
   5.300   0.7865   0.00863   0.00313  -0.0534  0.1486  0.8007  -2.0125   0.0000   0.3119
   5.400   0.7959   0.00877   0.00323  -0.0532  0.1374  0.8016  -2.0875   0.0000   0.3108
   5.500   0.8052   0.00891   0.00333  -0.0529  0.1273  0.8025  -2.1634   0.0000   0.3096
   5.600   0.8148   0.00904   0.00342  -0.0527  0.1186  0.8033  -2.2410   0.0000   0.3085
   5.700   0.8244   0.00917   0.00351  -0.0525  0.1102  0.8042  -2.3196   0.0000   0.3074
   5.800   0.8340   0.00930   0.00361  -0.0524  0.1023  0.8051  -2.3989   0.0000   0.3063
   5.900   0.8435   0.00943   0.00370  -0.0521  0.0944  0.8061  -2.4789   0.0000   0.3053
   6.000   0.8529   0.00958   0.00381  -0.0519  0.0865  0.8070  -2.5593   0.0000   0.3042
   6.100   0.8623   0.00972   0.00391  -0.0517  0.0790  0.8080  -2.6404   0.0000   0.3032
   6.200   0.8717   0.00986   0.00402  -0.0515  0.0720  0.8089  -2.7226   0.0000   0.3022
   6.300   0.8812   0.01000   0.00412  -0.0513  0.0656  0.8098  -2.8057   0.0000   0.3012
   6.400   0.8905   0.01013   0.00423  -0.0510  0.0593  0.8107  -2.8892   0.0000   0.3003
   6.500   0.8998   0.01027   0.00434  -0.0508  0.0534  0.8116  -2.9733   0.0000   0.2993
   6.600   0.9091   0.01041   0.00445  -0.0506  0.0481  0.8126  -3.0584   0.0000   0.2983
   6.700   0.9184   0.01055   0.00457  -0.0503  0.0430  0.8134  -3.1440   0.0000   0.2974
   6.800   0.9277   0.01069   0.00469  -0.0501  0.0385  0.8143  -3.2305   0.0000   0.2965
   6.900   0.9370   0.01083   0.00481  -0.0498  0.0347  0.8153  -3.3180   0.0000   0.2956
   7.000   0.9463   0.01097   0.00493  -0.0496  0.0311  0.8162  -3.4060   0.0000   0.2947
   7.100   0.9556   0.01111   0.00505  -0.0494  0.0279  0.8171  -3.4955   0.0000   0.2938
   7.200   0.9649   0.01125   0.00517  -0.0491  0.0252  0.8181  -3.5940   0.0000   0.2930
   7.300   0.9743   0.01138   0.00530  -0.0489  0.0230  0.8190  -3.6936   0.0000   0.2922
   7.500   0.9929   0.01164   0.00554  -0.0484  0.0194  0.8208  -3.8945   0.0000   0.2905
   7.600   1.0019   0.01178   0.00568  -0.0481  0.0178  0.8218  -3.9945   0.0000   0.2897
   7.700   1.0114   0.01189   0.00580  -0.0479  0.0169  0.8227  -4.0985   0.0000   0.2889
   7.800   1.0206   0.01201   0.00593  -0.0477  0.0159  0.8237  -4.2021   0.0000   0.2881
   7.900   1.0294   0.01217   0.00608  -0.0474  0.0149  0.8246  -4.3035   0.0000   0.2873
   8.000   1.0389   0.01228   0.00620  -0.0472  0.0144  0.8256  -4.4101   0.0000   0.2865
   8.100   1.0482   0.01240   0.00632  -0.0469  0.0138  0.8265  -4.5169   0.0000   0.2858
   8.200   1.0573   0.01253   0.00646  -0.0467  0.0132  0.8275  -4.6238   0.0000   0.2850
   8.300   1.0660   0.01269   0.00662  -0.0463  0.0125  0.8284  -4.7287   0.0000   0.2842
   8.400   1.0749   0.01285   0.00677  -0.0460  0.0120  0.8293  -4.8338   0.0000   0.2835
   8.500   1.0840   0.01295   0.00689  -0.0458  0.0117  0.8303  -4.9444   0.0000   0.2827
   8.600   1.0929   0.01306   0.00702  -0.0454  0.0114  0.8313  -5.0540   0.0000   0.2820
   8.700   1.1014   0.01318   0.00715  -0.0451  0.0110  0.8323  -5.1625   0.0000   0.2812
   8.800   1.1096   0.01331   0.00729  -0.0446  0.0107  0.8334  -5.2700   0.0000   0.2804
   8.900   1.1176   0.01346   0.00744  -0.0441  0.0103  0.8345  -5.3764   0.0000   0.2795
   9.000   1.1252   0.01365   0.00764  -0.0436  0.0099  0.8356  -5.4801   0.0000   0.2786
   9.100   1.1332   0.01382   0.00783  -0.0432  0.0096  0.8368  -5.5959   0.0000   0.2778
   9.200   1.1419   0.01394   0.00797  -0.0428  0.0094  0.8379  -5.7203   0.0000   0.2771
   9.300   1.1505   0.01408   0.00811  -0.0425  0.0093  0.8389  -5.8447   0.0000   0.2764
   9.400   1.1590   0.01422   0.00826  -0.0421  0.0091  0.8401  -5.9693   0.0000   0.2757
   9.500   1.1673   0.01435   0.00842  -0.0418  0.0088  0.8412  -6.0941   0.0000   0.2750
   9.600   1.1756   0.01450   0.00858  -0.0414  0.0086  0.8424  -6.2195   0.0000   0.2743
   9.700   1.1836   0.01466   0.00876  -0.0410  0.0084  0.8437  -6.3448   0.0000   0.2735
   9.800   1.1916   0.01483   0.00894  -0.0405  0.0082  0.8450  -6.4697   0.0000   0.2728
   9.900   1.1992   0.01502   0.00914  -0.0400  0.0080  0.8463  -6.5922   0.0000   0.2721
  10.000   1.2062   0.01526   0.00940  -0.0395  0.0077  0.8477  -6.7083   0.0000   0.2712
  10.200   1.2202   0.01572   0.00990  -0.0383  0.0074  0.8503  -6.9430   0.0000   0.2696
  10.300   1.2282   0.01587   0.01007  -0.0379  0.0073  0.8517  -7.0737   0.0000   0.2690
  10.400   1.2361   0.01602   0.01025  -0.0375  0.0072  0.8531  -7.2047   0.0000   0.2683
  10.500   1.2438   0.01618   0.01042  -0.0371  0.0071  0.8547  -7.3359   0.0000   0.2676
  10.600   1.2515   0.01635   0.01061  -0.0366  0.0070  0.8563  -7.4675   0.0000   0.2669
  10.700   1.2591   0.01652   0.01080  -0.0362  0.0069  0.8580  -7.5994   0.0000   0.2662
  10.800   1.2666   0.01670   0.01100  -0.0357  0.0067  0.8597  -7.7313   0.0000   0.2655
  10.900   1.2739   0.01688   0.01120  -0.0352  0.0066  0.8617  -7.8635   0.0000   0.2649
  11.000   1.2811   0.01707   0.01141  -0.0347  0.0065  0.8638  -7.9958   0.0000   0.2642
  11.100   1.2882   0.01726   0.01162  -0.0342  0.0064  0.8662  -8.1277   0.0000   0.2635
  11.200   1.2951   0.01747   0.01185  -0.0337  0.0063  0.8686  -8.2588   0.0000   0.2628
  11.300   1.3018   0.01769   0.01209  -0.0331  0.0062  0.8715  -8.3886   0.0000   0.2620
  11.400   1.3083   0.01792   0.01235  -0.0325  0.0061  0.8747  -8.5169   0.0000   0.2613
  11.500   1.3144   0.01817   0.01263  -0.0319  0.0060  0.8782  -8.6416   0.0000   0.2606
  11.600   1.3199   0.01846   0.01296  -0.0312  0.0058  0.8825  -8.7603   0.0000   0.2597
  11.700   1.3245   0.01880   0.01335  -0.0303  0.0057  0.8879  -8.8697   0.0000   0.2589
  11.800   1.3278   0.01922   0.01383  -0.0293  0.0056  0.8958  -8.9635   0.0000   0.2579
  11.900   1.3321   0.01950   0.01419  -0.0283  0.0055  0.9093  -9.0730   0.0000   0.2569
  12.000   1.3388   0.01959   0.01443  -0.0278  0.0055  0.9645  -9.2093   0.0000   0.2562
  12.200   1.3529   0.02005   0.01495  -0.0270  0.0054  1.0000  -9.4876   0.0000   0.2551
  12.300   1.3593   0.02031   0.01522  -0.0265  0.0054  1.0000  -9.6228   0.0000   0.2545
  12.400   1.3655   0.02057   0.01550  -0.0260  0.0053  1.0000  -9.7575   0.0000   0.2539
  12.500   1.3717   0.02084   0.01579  -0.0255  0.0053  1.0000  -9.8944   0.0000   0.2532
  12.600   1.3777   0.02113   0.01609  -0.0249  0.0052  1.0000  -10.0387   0.0000   0.2526
  12.700   1.3836   0.02142   0.01641  -0.0244  0.0052  1.0000  -10.1827   0.0000   0.2520
  12.800   1.3893   0.02172   0.01673  -0.0238  0.0051  1.0000  -10.3260   0.0000   0.2513
  12.900   1.3950   0.02203   0.01706  -0.0233  0.0051  1.0000  -10.4693   0.0000   0.2507
  13.000   1.4005   0.02235   0.01739  -0.0227  0.0050  1.0000  -10.6121   0.0000   0.2500
  13.100   1.4059   0.02267   0.01774  -0.0221  0.0050  1.0000  -10.7554   0.0000   0.2494
  13.200   1.4112   0.02300   0.01809  -0.0216  0.0049  1.0000  -10.8985   0.0000   0.2488
  13.300   1.4165   0.02334   0.01845  -0.0210  0.0049  1.0000  -11.0420   0.0000   0.2481
  13.400   1.4217   0.02369   0.01882  -0.0204  0.0048  1.0000  -11.1860   0.0000   0.2475
  13.500   1.4268   0.02403   0.01918  -0.0199  0.0047  1.0000  -11.3304   0.0000   0.2469
  13.600   1.4319   0.02439   0.01955  -0.0193  0.0047  1.0000  -11.4756   0.0000   0.2463
  13.700   1.4369   0.02475   0.01993  -0.0188  0.0046  1.0000  -11.6209   0.0000   0.2456
  13.800   1.4419   0.02511   0.02032  -0.0182  0.0046  1.0000  -11.7668   0.0000   0.2450
  13.900   1.4466   0.02549   0.02071  -0.0177  0.0045  1.0000  -11.9117   0.0000   0.2444
  14.000   1.4512   0.02589   0.02113  -0.0171  0.0045  1.0000  -12.0554   0.0000   0.2438
  14.100   1.4555   0.02631   0.02157  -0.0165  0.0044  1.0000  -12.1968   0.0000   0.2432
  14.200   1.4595   0.02676   0.02204  -0.0159  0.0044  1.0000  -12.3344   0.0000   0.2426
  14.300   1.4630   0.02724   0.02255  -0.0153  0.0043  1.0000  -12.4666   0.0000   0.2419
  14.400   1.4658   0.02778   0.02311  -0.0146  0.0042  1.0000  -12.5915   0.0000   0.2413
  14.500   1.4678   0.02838   0.02375  -0.0139  0.0042  1.0000  -12.7064   0.0000   0.2405
  14.600   1.4689   0.02907   0.02448  -0.0131  0.0041  1.0000  -12.8084   0.0000   0.2398
  14.700   1.4685   0.02989   0.02534  -0.0122  0.0040  1.0000  -12.8929   0.0000   0.2390
  14.800   1.4663   0.03085   0.02637  -0.0111  0.0040  1.0000  -12.9545   0.0000   0.2381
  14.900   1.4627   0.03195   0.02753  -0.0101  0.0039  1.0000  -12.9968   0.0000   0.2372
  15.000   1.4661   0.03247   0.02808  -0.0096  0.0039  1.0000  -13.1325   0.0000   0.2366
  15.100   1.4692   0.03303   0.02867  -0.0091  0.0039  1.0000  -13.2648   0.0000   0.2361
  15.200   1.4723   0.03361   0.02927  -0.0086  0.0039  1.0000  -13.3964   0.0000   0.2356
  15.300   1.4751   0.03421   0.02990  -0.0082  0.0038  1.0000  -13.5257   0.0000   0.2350
  15.400   1.4778   0.03482   0.03055  -0.0077  0.0038  1.0000  -13.6540   0.0000   0.2345
  15.500   1.4802   0.03547   0.03122  -0.0073  0.0038  1.0000  -13.7797   0.0000   0.2340
  15.600   1.4825   0.03614   0.03192  -0.0068  0.0038  1.0000  -13.9042   0.0000   0.2335
  15.700   1.4845   0.03684   0.03265  -0.0064  0.0038  1.0000  -14.0255   0.0000   0.2330
  15.800   1.4862   0.03755   0.03340  -0.0059  0.0038  1.0000  -14.1445   0.0000   0.2324
  15.900   1.4878   0.03830   0.03418  -0.0055  0.0038  1.0000  -14.2613   0.0000   0.2319
  16.000   1.4892   0.03908   0.03499  -0.0051  0.0037  1.0000  -14.3757   0.0000   0.2315
  16.100   1.4904   0.03988   0.03583  -0.0048  0.0037  1.0000  -14.4889   0.0000   0.2310
  16.200   1.4914   0.04073   0.03671  -0.0044  0.0037  1.0000  -14.5993   0.0000   0.2305
  16.300   1.4923   0.04161   0.03762  -0.0041  0.0037  1.0000  -14.7080   0.0000   0.2301
  16.400   1.4930   0.04252   0.03856  -0.0038  0.0037  1.0000  -14.8146   0.0000   0.2297
  16.500   1.4934   0.04347   0.03955  -0.0035  0.0036  1.0000  -14.9181   0.0000   0.2293
  16.600   1.4937   0.04445   0.04057  -0.0033  0.0036  1.0000  -15.0197   0.0000   0.2289
  16.700   1.4938   0.04547   0.04163  -0.0031  0.0036  1.0000  -15.1189   0.0000   0.2285
  16.800   1.4936   0.04654   0.04274  -0.0029  0.0036  1.0000  -15.2138   0.0000   0.2282
  16.900   1.4931   0.04764   0.04388  -0.0028  0.0036  1.0000  -15.3058   0.0000   0.2278
  17.000   1.4925   0.04879   0.04506  -0.0027  0.0036  1.0000  -15.3955   0.0000   0.2275
  17.100   1.4917   0.04998   0.04630  -0.0026  0.0035  1.0000  -15.4822   0.0000   0.2272
  17.200   1.4906   0.05124   0.04759  -0.0026  0.0035  1.0000  -15.5654   0.0000   0.2270
  17.300   1.4894   0.05254   0.04893  -0.0026  0.0035  1.0000  -15.6455   0.0000   0.2268
  17.400   1.4879   0.05389   0.05032  -0.0027  0.0035  1.0000  -15.7225   0.0000   0.2266
  17.500   1.4862   0.05529   0.05176  -0.0028  0.0035  1.0000  -15.7957   0.0000   0.2264
  17.600   1.4842   0.05675   0.05327  -0.0030  0.0035  1.0000  -15.8652   0.0000   0.2263
  17.700   1.4820   0.05828   0.05484  -0.0032  0.0034  1.0000  -15.9303   0.0000   0.2262
  17.800   1.4795   0.05987   0.05647  -0.0035  0.0034  1.0000  -15.9907   0.0000   0.2261
  17.900   1.4766   0.06154   0.05818  -0.0039  0.0034  1.0000  -16.0456   0.0000   0.2261
  18.000   1.4733   0.06327   0.05995  -0.0043  0.0034  1.0000  -16.0944   0.0000   0.2261
  18.100   1.4697   0.06507   0.06181  -0.0047  0.0034  1.0000  -16.1376   0.0000   0.2262
  18.200   1.4658   0.06697   0.06375  -0.0053  0.0034  1.0000  -16.1751   0.0000   0.2263
  18.300   1.4615   0.06895   0.06578  -0.0059  0.0034  1.0000  -16.2063   0.0000   0.2265
  18.400   1.4569   0.07103   0.06790  -0.0066  0.0033  1.0000  -16.2304   0.0000   0.2267
  18.500   1.4518   0.07321   0.07013  -0.0073  0.0033  1.0000  -16.2468   0.0000   0.2270
  18.600   1.4463   0.07549   0.07246  -0.0082  0.0033  1.0000  -16.2553   0.0000   0.2273
  18.700   1.4403   0.07788   0.07490  -0.0091  0.0033  1.0000  -16.2556   0.0000   0.2277
  18.800   1.4339   0.08038   0.07745  -0.0101  0.0033  1.0000  -16.2467   0.0000   0.2282
  18.900   1.4269   0.08302   0.08015  -0.0112  0.0033  1.0000  -16.2259   0.0000   0.2287
  19.000   1.4191   0.08578   0.08296  -0.0124  0.0033  1.0000  -16.1927   0.0000   0.2293
  19.100   1.4108   0.08867   0.08590  -0.0137  0.0033  1.0000  -16.1480   0.0000   0.2300
  19.200   1.4018   0.09174   0.08902  -0.0150  0.0033  1.0000  -16.0889   0.0000   0.2308
  19.300   1.3923   0.09493   0.09227  -0.0165  0.0033  1.0000  -16.0191   0.0000   0.2317
  19.400   1.3819   0.09831   0.09572  -0.0181  0.0033  1.0000  -15.9319   0.0000   0.2327
  19.500   1.3711   0.10183   0.09929  -0.0198  0.0033  1.0000  -15.8329   0.0000   0.2338
  19.600   1.3594   0.10555   0.10307  -0.0216  0.0033  1.0000  -15.7153   0.0000   0.2350
  19.700   1.3472   0.10942   0.10700  -0.0235  0.0033  1.0000  -15.5832   0.0000   0.2363
  19.800   1.3343   0.11343   0.11107  -0.0256  0.0033  1.0000  -15.4351   0.0000   0.2377
  19.900   1.3204   0.11763   0.11533  -0.0277  0.0033  1.0000  -15.2651   0.0000   0.2393
  20.000   1.3063   0.12195   0.11972  -0.0299  0.0033  1.0000  -15.0834   0.0000   0.2410


