xflr5 v6.32

 Calculated polar for: finalfoil mod1

 1 1 Reynolds number fixed          Mach number fixed         

 xtrf =   1.000 (top)        1.000 (bottom)
 Mach =   0.000     Re =     0.300 e 6     Ncrit =   9.000

  alpha     CL        CD       CDp       Cm    Top Xtr Bot Xtr   Cpmin    Chinge    XCp    
 ------- -------- --------- --------- -------- ------- ------- -------- --------- ---------
  -8.500  -0.6849   0.03529   0.03009  -0.0559  0.9763  0.0211  -4.6976   0.0000   0.1592
  -8.400  -0.6796   0.03375   0.02835  -0.0556  0.9747  0.0209  -4.7205   0.0000   0.1592
  -8.300  -0.6716   0.03233   0.02671  -0.0556  0.9737  0.0209  -4.7227   0.0000   0.1581
  -8.200  -0.6639   0.03111   0.02531  -0.0554  0.9724  0.0209  -4.7145   0.0000   0.1575
  -8.100  -0.6570   0.03003   0.02406  -0.0550  0.9708  0.0210  -4.7019   0.0000   0.1573
  -8.000  -0.6476   0.02885   0.02271  -0.0551  0.9699  0.0209  -4.6866   0.0000   0.1561
  -7.900  -0.6370   0.02764   0.02132  -0.0552  0.9692  0.0207  -4.6727   0.0000   0.1544
  -7.800  -0.6256   0.02652   0.02002  -0.0555  0.9687  0.0206  -4.6508   0.0000   0.1524
  -7.700  -0.6186   0.02576   0.01914  -0.0548  0.9667  0.0206  -4.6220   0.0000   0.1526
  -7.600  -0.6078   0.02496   0.01822  -0.0549  0.9658  0.0207  -4.5743   0.0000   0.1509
  -7.500  -0.5959   0.02423   0.01738  -0.0552  0.9652  0.0208  -4.5159   0.0000   0.1487
  -7.400  -0.5835   0.02355   0.01660  -0.0555  0.9646  0.0210  -4.4504   0.0000   0.1461
  -7.300  -0.5708   0.02292   0.01588  -0.0560  0.9642  0.0213  -4.3801   0.0000   0.1432
  -7.200  -0.5628   0.02246   0.01535  -0.0554  0.9624  0.0215  -4.3230   0.0000   0.1428
  -7.100  -0.5519   0.02197   0.01478  -0.0555  0.9613  0.0219  -4.2550   0.0000   0.1408
  -7.000  -0.5397   0.02151   0.01423  -0.0558  0.9605  0.0222  -4.1806   0.0000   0.1380
  -6.900  -0.5272   0.02100   0.01366  -0.0562  0.9599  0.0226  -4.1023   0.0000   0.1348
  -6.800  -0.5151   0.02038   0.01309  -0.0567  0.9595  0.0232  -4.0067   0.0000   0.1313
  -6.700  -0.5023   0.02003   0.01275  -0.0573  0.9590  0.0240  -3.8961   0.0000   0.1273
  -6.600  -0.4964   0.01983   0.01253  -0.0564  0.9564  0.0247  -3.8221   0.0000   0.1278
  -6.500  -0.4845   0.01954   0.01219  -0.0567  0.9555  0.0257  -3.7314   0.0000   0.1244
  -6.400  -0.4724   0.01911   0.01173  -0.0571  0.9549  0.0266  -3.6462   0.0000   0.1205
  -6.300  -0.4601   0.01867   0.01134  -0.0576  0.9543  0.0276  -3.5472   0.0000   0.1161
  -6.200  -0.4470   0.01832   0.01098  -0.0583  0.9538  0.0287  -3.4511   0.0000   0.1111
  -6.100  -0.4424   0.01812   0.01076  -0.0571  0.9510  0.0296  -3.3932   0.0000   0.1125
  -6.000  -0.4312   0.01774   0.01036  -0.0573  0.9500  0.0308  -3.3118   0.0000   0.1086
  -5.900  -0.4190   0.01739   0.01004  -0.0578  0.9493  0.0325  -3.2223   0.0000   0.1035
  -5.800  -0.4056   0.01712   0.00972  -0.0584  0.9487  0.0347  -3.1499   0.0000   0.0975
  -5.700  -0.3986   0.01683   0.00947  -0.0578  0.9467  0.0367  -3.0858   0.0000   0.0964
  -5.600  -0.3893   0.01661   0.00924  -0.0576  0.9451  0.0397  -3.0187   0.0000   0.0934
  -5.500  -0.3771   0.01635   0.00898  -0.0581  0.9442  0.0439  -2.9384   0.0000   0.0875
  -5.400  -0.3645   0.01602   0.00869  -0.0586  0.9435  0.0494  -2.8594   0.0000   0.0807
  -5.300  -0.3517   0.01567   0.00840  -0.0592  0.9429  0.0573  -2.7767   0.0000   0.0730
  -5.200  -0.3386   0.01531   0.00812  -0.0599  0.9424  0.0706  -2.6936   0.0000   0.0644
  -5.100  -0.3363   0.01512   0.00800  -0.0583  0.9391  0.0819  -2.6466   0.0000   0.0681
  -5.000  -0.3250   0.01476   0.00778  -0.0587  0.9381  0.1072  -2.5640   0.0000   0.0608
  -4.700  -0.2956   0.01383   0.00731  -0.0589  0.9342  0.2028  -2.3190   0.0000   0.0421
  -4.600  -0.2871   0.01350   0.00716  -0.0587  0.9326  0.2432  -2.2417   0.0000   0.0367
  -4.500  -0.2772   0.01308   0.00698  -0.0589  0.9316  0.2974  -2.1596   0.0000   0.0287
  -4.400  -0.2675   0.01258   0.00680  -0.0591  0.9307  0.3674  -2.0784   0.0000   0.0202
  -4.300  -0.2579   0.01208   0.00663  -0.0592  0.9300  0.4472  -1.9978   0.0000   0.0114
  -4.200  -0.2562   0.01189   0.00665  -0.0575  0.9267  0.4970  -1.9475   0.0000   0.0166
  -4.100  -0.2468   0.01163   0.00663  -0.0573  0.9255  0.5544  -1.8678   0.0000   0.0091
  -4.000  -0.2356   0.01149   0.00664  -0.0573  0.9246  0.5981  -1.7818   0.0000  -0.0020
  -3.900  -0.2233   0.01142   0.00667  -0.0574  0.9240  0.6294  -1.6928   0.0000  -0.0161
  -3.800  -0.2104   0.01139   0.00669  -0.0576  0.9234  0.6531  -1.6028   0.0000  -0.0332
  -3.700  -0.2061   0.01147   0.00680  -0.0563  0.9200  0.6674  -1.5453   0.0000  -0.0322
  -3.600  -0.1945   0.01150   0.00684  -0.0562  0.9189  0.6823  -1.4679   0.0000  -0.0485
  -3.500  -0.1821   0.01154   0.00687  -0.0564  0.9181  0.6947  -1.3918   0.0000  -0.0693
  -3.400  -0.1692   0.01158   0.00690  -0.0566  0.9174  0.7053  -1.3153   0.0000  -0.0946
  -3.300  -0.1561   0.01161   0.00691  -0.0569  0.9168  0.7149  -1.2392   0.0000  -0.1252
  -3.200  -0.1504   0.01174   0.00703  -0.0558  0.9138  0.7217  -1.1868   0.0000  -0.1317
  -3.100  -0.1393   0.01180   0.00709  -0.0557  0.9124  0.7286  -1.1188   0.0000  -0.1608
  -3.000  -0.1270   0.01184   0.00709  -0.0559  0.9114  0.7359  -1.0482   0.0000  -0.2015
  -2.900  -0.1141   0.01190   0.00714  -0.0560  0.9107  0.7410  -0.9770   0.0000  -0.2533
  -2.800  -0.1010   0.01193   0.00713  -0.0564  0.9101  0.7471  -0.9063   0.0000  -0.3213
  -2.700  -0.0881   0.01198   0.00717  -0.0566  0.9094  0.7514  -0.8371   0.0000  -0.4067
  -2.600  -0.0832   0.01210   0.00727  -0.0554  0.9058  0.7567  -0.7921   0.0000  -0.4303
  -2.500  -0.0713   0.01215   0.00732  -0.0554  0.9047  0.7602  -0.7346   0.0000  -0.5436
  -2.400  -0.0587   0.01219   0.00734  -0.0555  0.9038  0.7647  -0.6836   0.0000  -0.7149
  -2.300  -0.0458   0.01221   0.00733  -0.0558  0.9031  0.7690  -0.6381   0.0000  -0.9906
  -2.200  -0.0328   0.01224   0.00735  -0.0560  0.9025  0.7723  -0.5953   0.0000  -1.4892
  -2.100  -0.0270   0.01235   0.00745  -0.0550  0.8992  0.7764  -0.5670   0.0000  -1.8196
  -2.000  -0.0157   0.01237   0.00745  -0.0549  0.8978  0.7798  -0.5342   0.0000  -3.3099
  -1.900  -0.0034   0.01239   0.00747  -0.0550  0.8968  0.7828  -0.5030   0.0000  -16.1951
  -1.800   0.0092   0.01240   0.00745  -0.0552  0.8960  0.7872  -0.4772   0.0000   6.3278
  -1.700   0.0218   0.01242   0.00747  -0.0553  0.8953  0.7910  -0.4516   0.0000   2.8220
  -1.500   0.0385   0.01259   0.00764  -0.0539  0.8905  0.8002  -0.4127   0.0000   1.6680
  -1.400   0.0499   0.01263   0.00770  -0.0537  0.8894  0.8039  -0.3927   0.0000   1.3378
  -1.300   0.0622   0.01263   0.00766  -0.0538  0.8885  0.8090  -0.3759   0.0000   1.1247
  -1.200   0.0746   0.01261   0.00765  -0.0538  0.8877  0.8116  -0.3824   0.0000   0.9790
  -0.900   0.1048   0.01261   0.00762  -0.0531  0.8817  0.8199  -0.3985   0.0000   0.7604
  -0.800   0.1172   0.01256   0.00757  -0.0532  0.8808  0.8215  -0.4052   0.0000   0.7069
  -0.700   0.1300   0.01250   0.00750  -0.0534  0.8799  0.8232  -0.4122   0.0000   0.6632
  -0.500   0.1489   0.01249   0.00748  -0.0528  0.8751  0.8282  -0.4234   0.0000   0.6058
  -0.400   0.1609   0.01243   0.00740  -0.0530  0.8737  0.8303  -0.4307   0.0000   0.5798
  -0.300   0.1733   0.01235   0.00733  -0.0531  0.8726  0.8318  -0.4383   0.0000   0.5565
  -0.200   0.1861   0.01227   0.00724  -0.0533  0.8717  0.8334  -0.4460   0.0000   0.5363
  -0.100   0.1943   0.01229   0.00726  -0.0527  0.8687  0.8356  -0.4516   0.0000   0.5210
   0.000   0.2051   0.01225   0.00721  -0.0527  0.8666  0.8380  -0.4588   0.0000   0.5063
   0.100   0.2172   0.01217   0.00713  -0.0528  0.8652  0.8400  -0.4671   0.0000   0.4925
   0.200   0.2296   0.01209   0.00705  -0.0530  0.8642  0.8414  -0.4755   0.0000   0.4797
   0.300   0.2424   0.01201   0.00696  -0.0532  0.8632  0.8429  -0.4842   0.0000   0.4681
   0.400   0.2497   0.01204   0.00700  -0.0525  0.8596  0.8450  -0.4903   0.0000   0.4587
   0.500   0.2611   0.01197   0.00693  -0.0525  0.8577  0.8471  -0.4986   0.0000   0.4495
   0.600   0.2737   0.01188   0.00683  -0.0528  0.8563  0.8493  -0.5081   0.0000   0.4411
   0.700   0.2863   0.01178   0.00673  -0.0529  0.8552  0.8505  -0.5179   0.0000   0.4330
   0.800   0.2950   0.01177   0.00674  -0.0524  0.8521  0.8521  -0.5261   0.0000   0.4257
   0.900   0.3055   0.01172   0.00670  -0.0522  0.8497  0.8539  -0.5353   0.0000   0.4188
   1.000   0.3176   0.01164   0.00661  -0.0523  0.8481  0.8557  -0.5459   0.0000   0.4126
   1.100   0.3304   0.01154   0.00650  -0.0526  0.8468  0.8578  -0.5572   0.0000   0.4070
   1.200   0.3401   0.01150   0.00647  -0.0523  0.8440  0.8595  -0.5669   0.0000   0.4014
   1.300   0.3500   0.01145   0.00644  -0.0520  0.8412  0.8610  -0.5771   0.0000   0.3960
   1.400   0.3619   0.01137   0.00636  -0.0520  0.8394  0.8625  -0.5886   0.0000   0.3912
   1.500   0.3746   0.01126   0.00625  -0.0522  0.8380  0.8641  -0.6013   0.0000   0.3868
   1.600   0.3839   0.01124   0.00623  -0.0519  0.8346  0.8662  -0.6133   0.0000   0.3824
   1.700   0.3948   0.01117   0.00617  -0.0519  0.8319  0.8681  -0.6267   0.0000   0.3785
   1.800   0.4069   0.01107   0.00608  -0.0519  0.8299  0.8693  -0.6421   0.0000   0.3746
   1.900   0.4194   0.01096   0.00597  -0.0520  0.8283  0.8706  -0.6585   0.0000   0.3710
   2.000   0.4275   0.01095   0.00598  -0.0514  0.8240  0.8725  -0.6715   0.0000   0.3671
   2.100   0.4393   0.01085   0.00589  -0.0515  0.8215  0.8742  -0.6881   0.0000   0.3639
   2.200   0.4523   0.01074   0.00577  -0.0518  0.8196  0.8761  -0.7065   0.0000   0.3611
   2.300   0.4607   0.01072   0.00577  -0.0512  0.8152  0.8778  -0.7216   0.0000   0.3578
   2.400   0.4719   0.01063   0.00570  -0.0511  0.8124  0.8791  -0.7397   0.0000   0.3548
   2.500   0.4846   0.01052   0.00559  -0.0513  0.8102  0.8805  -0.7605   0.0000   0.3522
   2.600   0.4929   0.01049   0.00560  -0.0507  0.8054  0.8824  -0.7772   0.0000   0.3492
   2.700   0.5048   0.01040   0.00550  -0.0508  0.8024  0.8842  -0.7974   0.0000   0.3469
   2.800   0.5154   0.01034   0.00545  -0.0506  0.7986  0.8860  -0.8181   0.0000   0.3444
   2.900   0.5254   0.01027   0.00540  -0.0503  0.7944  0.8873  -0.8395   0.0000   0.3418
   3.000   0.5376   0.01017   0.00529  -0.0504  0.7913  0.8887  -0.8640   0.0000   0.3397
   3.100   0.5461   0.01013   0.00529  -0.0498  0.7858  0.8907  -0.8850   0.0000   0.3371
   3.200   0.5581   0.01004   0.00520  -0.0499  0.7821  0.8924  -0.9101   0.0000   0.3352
   3.300   0.5671   0.01000   0.00519  -0.0495  0.7764  0.8944  -0.9337   0.0000   0.3330
   3.400   0.5785   0.00992   0.00510  -0.0494  0.7723  0.8956  -0.9612   0.0000   0.3310
   3.500   0.5874   0.00988   0.00510  -0.0489  0.7663  0.8974  -0.9860   0.0000   0.3288
   3.600   0.5987   0.00981   0.00503  -0.0488  0.7617  0.8990  -1.0154   0.0000   0.3270
   3.700   0.6079   0.00978   0.00501  -0.0484  0.7551  0.9011  -1.0482   0.0000   0.3250
   3.800   0.6182   0.00973   0.00498  -0.0482  0.7493  0.9027  -1.0844   0.0000   0.3233
   3.900   0.6284   0.00968   0.00495  -0.0479  0.7431  0.9042  -1.1235   0.0000   0.3215
   4.000   0.6378   0.00965   0.00494  -0.0475  0.7360  0.9059  -1.1718   0.0000   0.3196
   4.100   0.6479   0.00962   0.00491  -0.0472  0.7288  0.9078  -1.2223   0.0000   0.3180
   4.200   0.6584   0.00959   0.00487  -0.0471  0.7214  0.9098  -1.2742   0.0000   0.3165
   4.300   0.6675   0.00957   0.00486  -0.0466  0.7128  0.9114  -1.3235   0.0000   0.3147
   4.400   0.6768   0.00955   0.00485  -0.0461  0.7037  0.9131  -1.3737   0.0000   0.3130
   4.500   0.6862   0.00954   0.00484  -0.0457  0.6936  0.9151  -1.4277   0.0000   0.3114
   4.600   0.6956   0.00955   0.00483  -0.0454  0.6827  0.9172  -1.4840   0.0000   0.3098
   4.700   0.7046   0.00955   0.00483  -0.0448  0.6708  0.9190  -1.5399   0.0000   0.3082
   4.800   0.7134   0.00958   0.00482  -0.0443  0.6579  0.9209  -1.5960   0.0000   0.3065
   4.900   0.7220   0.00962   0.00483  -0.0438  0.6435  0.9230  -1.6518   0.0000   0.3050
   5.000   0.7304   0.00967   0.00485  -0.0432  0.6276  0.9253  -1.7077   0.0000   0.3034
   5.100   0.7382   0.00975   0.00487  -0.0425  0.6107  0.9272  -1.7671   0.0000   0.3017
   5.200   0.7456   0.00984   0.00490  -0.0417  0.5920  0.9295  -1.8266   0.0000   0.3000
   5.300   0.7528   0.00996   0.00495  -0.0410  0.5721  0.9321  -1.8856   0.0000   0.2984
   5.400   0.7593   0.01010   0.00501  -0.0400  0.5512  0.9343  -1.9432   0.0000   0.2966
   5.500   0.7656   0.01027   0.00508  -0.0391  0.5295  0.9371  -2.0002   0.0000   0.2948
   5.600   0.7715   0.01045   0.00518  -0.0381  0.5069  0.9399  -2.0566   0.0000   0.2931
   5.700   0.7771   0.01065   0.00528  -0.0372  0.4836  0.9428  -2.1127   0.0000   0.2913
   5.800   0.7828   0.01086   0.00539  -0.0362  0.4602  0.9460  -2.1743   0.0000   0.2897
   5.900   0.7887   0.01108   0.00552  -0.0353  0.4366  0.9493  -2.2372   0.0000   0.2881
   6.000   0.7947   0.01132   0.00566  -0.0345  0.4125  0.9526  -2.3014   0.0000   0.2866
   6.100   0.8010   0.01158   0.00581  -0.0337  0.3881  0.9563  -2.3669   0.0000   0.2852
   6.200   0.8081   0.01186   0.00598  -0.0332  0.3628  0.9597  -2.4356   0.0000   0.2841
   6.300   0.8155   0.01215   0.00616  -0.0328  0.3375  0.9635  -2.5062   0.0000   0.2831
   6.400   0.8238   0.01246   0.00636  -0.0326  0.3112  0.9675  -2.5805   0.0000   0.2823
   6.500   0.8326   0.01281   0.00659  -0.0325  0.2850  0.9717  -2.6573   0.0000   0.2817
   6.600   0.8422   0.01315   0.00681  -0.0326  0.2590  0.9761  -2.7377   0.0000   0.2813
   6.700   0.8522   0.01352   0.00705  -0.0329  0.2342  0.9809  -2.8198   0.0000   0.2810
   6.800   0.8625   0.01387   0.00730  -0.0332  0.2105  0.9866  -2.9041   0.0000   0.2808
   6.900   0.8727   0.01423   0.00754  -0.0335  0.1885  0.9949  -2.9882   0.0000   0.2806
   7.000   0.8796   0.01452   0.00774  -0.0331  0.1712  1.0000  -3.0596   0.0000   0.2798
   7.100   0.8851   0.01479   0.00794  -0.0325  0.1562  1.0000  -3.1259   0.0000   0.2787
   7.200   0.8911   0.01509   0.00815  -0.0319  0.1420  1.0000  -3.1941   0.0000   0.2777
   7.400   0.9040   0.01570   0.00862  -0.0309  0.1148  1.0000  -3.3345   0.0000   0.2758
   7.500   0.9105   0.01603   0.00888  -0.0304  0.1020  1.0000  -3.4046   0.0000   0.2749
   7.600   0.9169   0.01639   0.00916  -0.0299  0.0899  1.0000  -3.4787   0.0000   0.2740
   7.700   0.9230   0.01677   0.00946  -0.0293  0.0789  1.0000  -3.5534   0.0000   0.2731
   7.800   0.9293   0.01715   0.00978  -0.0288  0.0690  1.0000  -3.6275   0.0000   0.2722
   7.900   0.9351   0.01756   0.01012  -0.0281  0.0614  1.0000  -3.6994   0.0000   0.2712
   8.000   0.9410   0.01798   0.01048  -0.0275  0.0555  1.0000  -3.7704   0.0000   0.2702
   8.100   0.9471   0.01837   0.01085  -0.0269  0.0507  1.0000  -3.8417   0.0000   0.2693
   8.200   0.9535   0.01873   0.01121  -0.0264  0.0468  1.0000  -3.9141   0.0000   0.2684
   8.300   0.9595   0.01913   0.01160  -0.0257  0.0438  1.0000  -3.9846   0.0000   0.2675
   8.400   0.9655   0.01952   0.01196  -0.0252  0.0413  1.0000  -4.0592   0.0000   0.2666
   8.500   0.9717   0.01989   0.01235  -0.0246  0.0390  1.0000  -4.1307   0.0000   0.2657
   8.600   0.9779   0.02026   0.01271  -0.0240  0.0372  1.0000  -4.2068   0.0000   0.2648
   8.700   0.9829   0.02071   0.01316  -0.0233  0.0357  1.0000  -4.2743   0.0000   0.2638
   8.800   0.9893   0.02107   0.01355  -0.0227  0.0342  1.0000  -4.3463   0.0000   0.2630
   8.900   0.9950   0.02147   0.01395  -0.0221  0.0331  1.0000  -4.4194   0.0000   0.2621
   9.000   0.9988   0.02202   0.01446  -0.0212  0.0322  1.0000  -4.4833   0.0000   0.2610
   9.100   1.0053   0.02238   0.01487  -0.0207  0.0311  1.0000  -4.5539   0.0000   0.2602
   9.200   1.0115   0.02276   0.01528  -0.0201  0.0301  1.0000  -4.6269   0.0000   0.2594
   9.300   1.0172   0.02317   0.01569  -0.0195  0.0292  1.0000  -4.7030   0.0000   0.2586
   9.400   1.0217   0.02368   0.01617  -0.0188  0.0284  1.0000  -4.7760   0.0000   0.2576
   9.500   1.0271   0.02415   0.01667  -0.0182  0.0276  1.0000  -4.8541   0.0000   0.2568
   9.600   1.0336   0.02453   0.01711  -0.0176  0.0268  1.0000  -4.9387   0.0000   0.2560
   9.700   1.0395   0.02495   0.01755  -0.0171  0.0261  1.0000  -5.0241   0.0000   0.2553
   9.800   1.0451   0.02539   0.01800  -0.0165  0.0255  1.0000  -5.1094   0.0000   0.2545
   9.900   1.0504   0.02590   0.01848  -0.0159  0.0250  1.0000  -5.1937   0.0000   0.2537
  10.000   1.0552   0.02659   0.01913  -0.0153  0.0245  1.0000  -5.2706   0.0000   0.2529
  10.100   1.0616   0.02706   0.01966  -0.0147  0.0241  1.0000  -5.3497   0.0000   0.2522
  10.200   1.0681   0.02753   0.02019  -0.0142  0.0236  1.0000  -5.4296   0.0000   0.2514
  10.300   1.0745   0.02803   0.02074  -0.0137  0.0231  1.0000  -5.5111   0.0000   0.2507
  10.400   1.0810   0.02854   0.02128  -0.0132  0.0227  1.0000  -5.5949   0.0000   0.2501
  10.500   1.0875   0.02904   0.02182  -0.0127  0.0223  1.0000  -5.6808   0.0000   0.2494
  10.600   1.0941   0.02956   0.02235  -0.0123  0.0219  1.0000  -5.7707   0.0000   0.2488
  10.700   1.1009   0.03010   0.02288  -0.0119  0.0215  1.0000  -5.8656   0.0000   0.2483
  10.800   1.1098   0.03084   0.02357  -0.0118  0.0211  1.0000  -5.9693   0.0000   0.2480
  10.900   1.1166   0.03149   0.02429  -0.0114  0.0207  1.0000  -6.0469   0.0000   0.2474
  11.000   1.1216   0.03202   0.02493  -0.0107  0.0204  1.0000  -6.1167   0.0000   0.2466
  11.100   1.1270   0.03258   0.02559  -0.0101  0.0200  1.0000  -6.1906   0.0000   0.2459
  11.200   1.1325   0.03315   0.02623  -0.0096  0.0196  1.0000  -6.2692   0.0000   0.2452
  11.300   1.1382   0.03372   0.02686  -0.0091  0.0192  1.0000  -6.3527   0.0000   0.2446
  11.400   1.1442   0.03430   0.02747  -0.0086  0.0189  1.0000  -6.4405   0.0000   0.2440
  11.500   1.1504   0.03492   0.02812  -0.0082  0.0187  1.0000  -6.5272   0.0000   0.2435
  11.600   1.1563   0.03556   0.02881  -0.0078  0.0184  1.0000  -6.6136   0.0000   0.2429
  11.700   1.1626   0.03626   0.02953  -0.0074  0.0182  1.0000  -6.7031   0.0000   0.2424
  11.800   1.1707   0.03710   0.03037  -0.0073  0.0180  1.0000  -6.8000   0.0000   0.2421
  11.900   1.1823   0.03846   0.03176  -0.0075  0.0177  1.0000  -6.8910   0.0000   0.2422
  12.000   1.1831   0.03923   0.03266  -0.0065  0.0176  1.0000  -6.9282   0.0000   0.2412
  12.100   1.1841   0.04008   0.03365  -0.0055  0.0176  1.0000  -6.9627   0.0000   0.2402
  12.200   1.1848   0.04100   0.03470  -0.0045  0.0175  1.0000  -6.9937   0.0000   0.2392
  12.300   1.1854   0.04198   0.03581  -0.0036  0.0174  1.0000  -7.0302   0.0000   0.2383
  12.400   1.1855   0.04302   0.03698  -0.0026  0.0173  1.0000  -7.0661   0.0000   0.2373
  12.500   1.1852   0.04411   0.03821  -0.0017  0.0172  1.0000  -7.0974   0.0000   0.2364
  12.600   1.1842   0.04525   0.03947  -0.0007  0.0172  1.0000  -7.1237   0.0000   0.2354
  12.700   1.1825   0.04644   0.04079   0.0002  0.0171  1.0000  -7.1450   0.0000   0.2344
  12.800   1.1802   0.04767   0.04214   0.0012  0.0171  1.0000  -7.1615   0.0000   0.2335
  12.900   1.1773   0.04895   0.04354   0.0021  0.0170  1.0000  -7.1734   0.0000   0.2325
  13.000   1.1736   0.05026   0.04498   0.0030  0.0170  1.0000  -7.1810   0.0000   0.2316
  13.100   1.1694   0.05162   0.04645   0.0039  0.0170  1.0000  -7.1846   0.0000   0.2306
  13.200   1.1647   0.05302   0.04797   0.0047  0.0169  1.0000  -7.1846   0.0000   0.2297
  13.300   1.1596   0.05448   0.04955   0.0055  0.0169  1.0000  -7.1813   0.0000   0.2289
  13.400   1.1541   0.05599   0.05118   0.0061  0.0169  1.0000  -7.1746   0.0000   0.2281
  13.500   1.1481   0.05756   0.05285   0.0067  0.0168  1.0000  -7.1646   0.0000   0.2274
  13.600   1.1417   0.05919   0.05459   0.0072  0.0168  1.0000  -7.1514   0.0000   0.2267
  13.700   1.1350   0.06089   0.05640   0.0076  0.0168  1.0000  -7.1350   0.0000   0.2261
  13.800   1.1279   0.06266   0.05828   0.0079  0.0168  1.0000  -7.1153   0.0000   0.2257
  13.900   1.1205   0.06452   0.06023   0.0080  0.0168  1.0000  -7.0925   0.0000   0.2253
  14.000   1.1128   0.06644   0.06225   0.0081  0.0168  1.0000  -7.0664   0.0000   0.2250
  14.100   1.1049   0.06845   0.06435   0.0080  0.0168  1.0000  -7.0372   0.0000   0.2248
  14.200   1.0967   0.07055   0.06655   0.0077  0.0168  1.0000  -7.0049   0.0000   0.2248
  14.300   1.0883   0.07275   0.06884   0.0073  0.0168  1.0000  -6.9696   0.0000   0.2249
  14.400   1.0798   0.07504   0.07122   0.0068  0.0168  1.0000  -6.9313   0.0000   0.2251
  14.500   1.0711   0.07743   0.07370   0.0061  0.0168  1.0000  -6.8904   0.0000   0.2255
  14.600   1.0624   0.07992   0.07627   0.0052  0.0169  1.0000  -6.8468   0.0000   0.2260
  14.700   1.0536   0.08251   0.07894   0.0042  0.0169  1.0000  -6.8009   0.0000   0.2268
  14.800   1.0448   0.08521   0.08172   0.0030  0.0170  1.0000  -6.7526   0.0000   0.2277
  14.900   1.0361   0.08803   0.08461   0.0017  0.0170  1.0000  -6.7022   0.0000   0.2287
  15.000   1.0274   0.09095   0.08760   0.0002  0.0171  1.0000  -6.6498   0.0000   0.2300
  15.100   1.0189   0.09397   0.09068  -0.0015  0.0171  1.0000  -6.5956   0.0000   0.2314
  15.200   1.0105   0.09707   0.09385  -0.0032  0.0172  1.0000  -6.5398   0.0000   0.2329
  15.300   1.0023   0.10024   0.09708  -0.0051  0.0172  1.0000  -6.4826   0.0000   0.2346
  15.400   0.9942   0.10346   0.10035  -0.0070  0.0173  1.0000  -6.4244   0.0000   0.2364
  15.500   0.9864   0.10673   0.10367  -0.0090  0.0174  1.0000  -6.3654   0.0000   0.2382
  15.600   0.9789   0.11003   0.10701  -0.0110  0.0174  1.0000  -6.3059   0.0000   0.2402
  15.700   0.9718   0.11333   0.11035  -0.0130  0.0175  1.0000  -6.2465   0.0000   0.2421
  15.800   0.9651   0.11662   0.11368  -0.0149  0.0176  1.0000  -6.1879   0.0000   0.2441
  15.900   0.9588   0.11985   0.11693  -0.0168  0.0176  1.0000  -6.1312   0.0000   0.2460
  16.000   0.9532   0.12297   0.12008  -0.0186  0.0177  1.0000  -6.0778   0.0000   0.2478
  16.100   0.9483   0.12594   0.12307  -0.0201  0.0177  1.0000  -6.0298   0.0000   0.2494
  16.500   0.6395   0.11577   0.11334  -0.0066  0.0209  1.0000  -3.9961   0.0000   0.2430


