xflr5 v6.32

 Calculated polar for: finalfoil mod1

 1 1 Reynolds number fixed          Mach number fixed         

 xtrf =   1.000 (top)        1.000 (bottom)
 Mach =   0.000     Re =     5.000 e 6     Ncrit =   9.000

  alpha     CL        CD       CDp       Cm    Top Xtr Bot Xtr   Cpmin    Chinge    XCp    
 ------- -------- --------- --------- -------- ------- ------- -------- --------- ---------
 -15.000  -1.2412   0.02191   0.01865  -0.0686  0.9911  0.0024  -18.2138   0.0000   0.1768
 -14.900  -1.2316   0.02147   0.01817  -0.0693  0.9875  0.0024  -18.0020   0.0000   0.1760
 -14.800  -1.2221   0.02104   0.01772  -0.0700  0.9830  0.0024  -17.7918   0.0000   0.1752
 -14.700  -1.2135   0.02065   0.01730  -0.0703  0.9774  0.0024  -17.5920   0.0000   0.1747
 -14.600  -1.2072   0.02032   0.01692  -0.0701  0.9705  0.0024  -17.4156   0.0000   0.1747
 -14.500  -1.2021   0.02001   0.01657  -0.0696  0.9643  0.0024  -17.2522   0.0000   0.1751
 -14.400  -1.1972   0.01972   0.01624  -0.0691  0.9591  0.0024  -17.0909   0.0000   0.1755
 -14.300  -1.1922   0.01943   0.01592  -0.0685  0.9548  0.0024  -16.9279   0.0000   0.1759
 -14.200  -1.1868   0.01916   0.01562  -0.0679  0.9511  0.0024  -16.7622   0.0000   0.1763
 -14.100  -1.1813   0.01890   0.01533  -0.0674  0.9479  0.0024  -16.5947   0.0000   0.1767
 -14.000  -1.1754   0.01865   0.01505  -0.0668  0.9448  0.0024  -16.4238   0.0000   0.1770
 -13.900  -1.1695   0.01841   0.01478  -0.0663  0.9422  0.0024  -16.2519   0.0000   0.1773
 -13.800  -1.1632   0.01817   0.01452  -0.0658  0.9397  0.0024  -16.0775   0.0000   0.1776
 -13.700  -1.1568   0.01796   0.01428  -0.0652  0.9374  0.0024  -15.9028   0.0000   0.1779
 -13.600  -1.1495   0.01773   0.01403  -0.0649  0.9354  0.0024  -15.7189   0.0000   0.1780
 -13.500  -1.1418   0.01751   0.01379  -0.0646  0.9334  0.0024  -15.5323   0.0000   0.1781
 -13.400  -1.1341   0.01729   0.01355  -0.0643  0.9314  0.0024  -15.3455   0.0000   0.1781
 -13.300  -1.1263   0.01708   0.01332  -0.0640  0.9297  0.0024  -15.1583   0.0000   0.1781
 -13.200  -1.1181   0.01687   0.01309  -0.0638  0.9279  0.0024  -14.9691   0.0000   0.1780
 -13.100  -1.1099   0.01667   0.01286  -0.0636  0.9261  0.0024  -14.7801   0.0000   0.1780
 -13.000  -1.1017   0.01647   0.01265  -0.0633  0.9244  0.0024  -14.5913   0.0000   0.1779
 -12.900  -1.0933   0.01628   0.01243  -0.0631  0.9228  0.0024  -14.4019   0.0000   0.1778
 -12.800  -1.0847   0.01608   0.01222  -0.0629  0.9211  0.0024  -14.2116   0.0000   0.1777
 -12.700  -1.0861   0.01484   0.01079  -0.0616  0.9182  0.0027  -14.3270   0.0000   0.1792
 -12.600  -1.0783   0.01456   0.01046  -0.0612  0.9167  0.0028  -14.1717   0.0000   0.1792
 -12.500  -1.0697   0.01432   0.01020  -0.0610  0.9152  0.0028  -13.9982   0.0000   0.1791
 -12.400  -1.0609   0.01411   0.00998  -0.0609  0.9137  0.0029  -13.8169   0.0000   0.1789
 -12.300  -1.0519   0.01392   0.00977  -0.0607  0.9123  0.0029  -13.6314   0.0000   0.1787
 -12.200  -1.0428   0.01375   0.00958  -0.0606  0.9109  0.0030  -13.4436   0.0000   0.1785
 -12.100  -1.0336   0.01358   0.00940  -0.0604  0.9095  0.0030  -13.2544   0.0000   0.1782
 -12.000  -1.0242   0.01342   0.00922  -0.0603  0.9083  0.0030  -13.0630   0.0000   0.1779
 -11.900  -1.0147   0.01326   0.00906  -0.0602  0.9069  0.0031  -12.8716   0.0000   0.1776
 -11.800  -1.0051   0.01311   0.00889  -0.0601  0.9056  0.0031  -12.6806   0.0000   0.1773
 -11.700  -0.9956   0.01296   0.00873  -0.0600  0.9043  0.0031  -12.4902   0.0000   0.1769
 -11.600  -0.9860   0.01282   0.00858  -0.0599  0.9030  0.0032  -12.3005   0.0000   0.1765
 -11.500  -0.9763   0.01268   0.00843  -0.0599  0.9019  0.0032  -12.1113   0.0000   0.1761
 -11.400  -0.9665   0.01254   0.00828  -0.0598  0.9007  0.0032  -11.9223   0.0000   0.1757
 -11.300  -0.9567   0.01240   0.00812  -0.0598  0.8994  0.0032  -11.7347   0.0000   0.1753
 -11.200  -0.9468   0.01226   0.00798  -0.0597  0.8981  0.0033  -11.5484   0.0000   0.1748
 -11.100  -0.9370   0.01212   0.00783  -0.0596  0.8968  0.0033  -11.3636   0.0000   0.1743
 -11.000  -0.9272   0.01199   0.00768  -0.0595  0.8956  0.0033  -11.1802   0.0000   0.1739
 -10.900  -0.9173   0.01186   0.00754  -0.0595  0.8944  0.0034  -10.9974   0.0000   0.1733
 -10.800  -0.9072   0.01172   0.00739  -0.0595  0.8932  0.0034  -10.8151   0.0000   0.1728
 -10.700  -0.8972   0.01159   0.00725  -0.0594  0.8919  0.0034  -10.6342   0.0000   0.1722
 -10.600  -0.8872   0.01146   0.00711  -0.0594  0.8906  0.0035  -10.4546   0.0000   0.1716
 -10.500  -0.8771   0.01133   0.00697  -0.0593  0.8894  0.0035  -10.2764   0.0000   0.1710
 -10.400  -0.8671   0.01121   0.00683  -0.0593  0.8882  0.0035  -10.0995   0.0000   0.1704
 -10.300  -0.8570   0.01109   0.00670  -0.0592  0.8870  0.0035  -9.9236   0.0000   0.1698
 -10.200  -0.8468   0.01096   0.00657  -0.0592  0.8860  0.0036  -9.7478   0.0000   0.1691
 -10.100  -0.8365   0.01084   0.00643  -0.0592  0.8848  0.0036  -9.5732   0.0000   0.1683
 -10.000  -0.8263   0.01072   0.00631  -0.0592  0.8836  0.0036  -9.3999   0.0000   0.1676
  -9.900  -0.8160   0.01060   0.00618  -0.0591  0.8825  0.0036  -9.2278   0.0000   0.1668
  -9.800  -0.8058   0.01049   0.00605  -0.0591  0.8813  0.0037  -9.0569   0.0000   0.1660
  -9.700  -0.7955   0.01038   0.00593  -0.0591  0.8801  0.0037  -8.8873   0.0000   0.1652
  -9.600  -0.7852   0.01027   0.00581  -0.0591  0.8790  0.0037  -8.7185   0.0000   0.1644
  -9.500  -0.7747   0.01016   0.00569  -0.0591  0.8780  0.0037  -8.5499   0.0000   0.1634
  -9.400  -0.7643   0.01005   0.00558  -0.0591  0.8768  0.0038  -8.3826   0.0000   0.1625
  -9.300  -0.7538   0.00994   0.00547  -0.0591  0.8756  0.0038  -8.2165   0.0000   0.1615
  -9.200  -0.7433   0.00984   0.00536  -0.0591  0.8744  0.0038  -8.0517   0.0000   0.1605
  -9.100  -0.7328   0.00974   0.00525  -0.0591  0.8733  0.0038  -7.8881   0.0000   0.1594
  -9.000  -0.7224   0.00965   0.00515  -0.0591  0.8721  0.0038  -7.7259   0.0000   0.1584
  -8.900  -0.7118   0.00956   0.00504  -0.0591  0.8710  0.0038  -7.5646   0.0000   0.1572
  -8.800  -0.7012   0.00946   0.00494  -0.0591  0.8699  0.0039  -7.4038   0.0000   0.1560
  -8.700  -0.6905   0.00936   0.00485  -0.0591  0.8688  0.0039  -7.2443   0.0000   0.1547
  -8.600  -0.6799   0.00927   0.00475  -0.0592  0.8676  0.0039  -7.0862   0.0000   0.1535
  -8.500  -0.6692   0.00919   0.00466  -0.0592  0.8665  0.0039  -6.9296   0.0000   0.1521
  -8.400  -0.6586   0.00910   0.00456  -0.0592  0.8653  0.0039  -6.7744   0.0000   0.1507
  -8.300  -0.6483   0.00897   0.00441  -0.0592  0.8641  0.0040  -6.6332   0.0000   0.1495
  -8.200  -0.6383   0.00880   0.00421  -0.0590  0.8629  0.0041  -6.5047   0.0000   0.1483
  -8.100  -0.6279   0.00866   0.00405  -0.0590  0.8618  0.0043  -6.3685   0.0000   0.1469
  -8.000  -0.6174   0.00854   0.00392  -0.0590  0.8607  0.0045  -6.2277   0.0000   0.1453
  -7.900  -0.6067   0.00844   0.00382  -0.0590  0.8594  0.0046  -6.0837   0.0000   0.1437
  -7.800  -0.5960   0.00835   0.00373  -0.0590  0.8582  0.0047  -5.9386   0.0000   0.1420
  -7.700  -0.5853   0.00826   0.00364  -0.0591  0.8569  0.0049  -5.7938   0.0000   0.1402
  -7.600  -0.5746   0.00818   0.00356  -0.0591  0.8557  0.0050  -5.6500   0.0000   0.1383
  -7.500  -0.5638   0.00811   0.00347  -0.0591  0.8545  0.0051  -5.5074   0.0000   0.1364
  -7.400  -0.5529   0.00803   0.00340  -0.0592  0.8535  0.0052  -5.3650   0.0000   0.1343
  -7.300  -0.5420   0.00796   0.00332  -0.0592  0.8524  0.0053  -5.2239   0.0000   0.1321
  -7.200  -0.5311   0.00788   0.00324  -0.0593  0.8511  0.0054  -5.0844   0.0000   0.1298
  -7.100  -0.5201   0.00781   0.00317  -0.0593  0.8499  0.0054  -4.9462   0.0000   0.1274
  -7.000  -0.5092   0.00775   0.00310  -0.0594  0.8488  0.0055  -4.8095   0.0000   0.1249
  -6.900  -0.4983   0.00769   0.00303  -0.0594  0.8476  0.0056  -4.6743   0.0000   0.1223
  -6.800  -0.4874   0.00763   0.00297  -0.0594  0.8464  0.0056  -4.5405   0.0000   0.1196
  -6.700  -0.4764   0.00756   0.00290  -0.0595  0.8454  0.0057  -4.4073   0.0000   0.1167
  -6.600  -0.4654   0.00750   0.00284  -0.0596  0.8443  0.0057  -4.2762   0.0000   0.1136
  -6.500  -0.4545   0.00740   0.00274  -0.0596  0.8431  0.0060  -4.1537   0.0000   0.1105
  -6.400  -0.4436   0.00732   0.00265  -0.0596  0.8419  0.0064  -4.0300   0.0000   0.1072
  -6.300  -0.4327   0.00725   0.00258  -0.0597  0.8406  0.0067  -3.9057   0.0000   0.1038
  -6.200  -0.4218   0.00719   0.00252  -0.0597  0.8394  0.0070  -3.7820   0.0000   0.1001
  -6.100  -0.4109   0.00712   0.00245  -0.0597  0.8381  0.0073  -3.6594   0.0000   0.0963
  -6.000  -0.3999   0.00707   0.00239  -0.0598  0.8369  0.0076  -3.5375   0.0000   0.0922
  -5.900  -0.3887   0.00701   0.00234  -0.0599  0.8358  0.0078  -3.4220   0.0000   0.0877
  -5.800  -0.3778   0.00693   0.00226  -0.0599  0.8344  0.0090  -3.3192   0.0000   0.0831
  -5.700  -0.3668   0.00686   0.00220  -0.0600  0.8330  0.0097  -3.2139   0.0000   0.0782
  -5.600  -0.3557   0.00681   0.00215  -0.0600  0.8316  0.0104  -3.1096   0.0000   0.0729
  -5.500  -0.3449   0.00674   0.00209  -0.0601  0.8302  0.0117  -3.0076   0.0000   0.0675
  -5.400  -0.3339   0.00669   0.00203  -0.0601  0.8288  0.0126  -2.9055   0.0000   0.0616
  -5.300  -0.3228   0.00663   0.00198  -0.0602  0.8276  0.0139  -2.8045   0.0000   0.0552
  -5.200  -0.3117   0.00656   0.00192  -0.0602  0.8263  0.0152  -2.7043   0.0000   0.0483
  -5.100  -0.3006   0.00650   0.00187  -0.0603  0.8249  0.0168  -2.6054   0.0000   0.0409
  -5.000  -0.2896   0.00644   0.00182  -0.0603  0.8234  0.0185  -2.5079   0.0000   0.0331
  -4.900  -0.2786   0.00638   0.00177  -0.0604  0.8219  0.0205  -2.4118   0.0000   0.0246
  -4.800  -0.2676   0.00633   0.00172  -0.0604  0.8203  0.0225  -2.3169   0.0000   0.0155
  -4.700  -0.2567   0.00627   0.00167  -0.0605  0.8189  0.0254  -2.2236   0.0000   0.0056
  -4.600  -0.2456   0.00620   0.00162  -0.0605  0.8175  0.0286  -2.1309   0.0000  -0.0054
  -4.500  -0.2346   0.00613   0.00157  -0.0606  0.8158  0.0331  -2.0402   0.0000  -0.0173
  -4.400  -0.2236   0.00607   0.00152  -0.0606  0.8140  0.0376  -1.9506   0.0000  -0.0303
  -4.300  -0.2128   0.00600   0.00147  -0.0606  0.8122  0.0428  -1.8626   0.0000  -0.0444
  -4.200  -0.2019   0.00594   0.00142  -0.0607  0.8104  0.0479  -1.7760   0.0000  -0.0600
  -4.100  -0.1909   0.00587   0.00138  -0.0607  0.8087  0.0536  -1.6899   0.0000  -0.0779
  -4.000  -0.1799   0.00581   0.00134  -0.0608  0.8069  0.0602  -1.6053   0.0000  -0.0979
  -3.900  -0.1689   0.00574   0.00129  -0.0608  0.8050  0.0669  -1.5221   0.0000  -0.1204
  -3.800  -0.1580   0.00567   0.00125  -0.0608  0.8030  0.0744  -1.4403   0.0000  -0.1456
  -3.700  -0.1472   0.00561   0.00121  -0.0608  0.8011  0.0824  -1.3678   0.0000  -0.1742
  -3.600  -0.1362   0.00554   0.00117  -0.0609  0.7995  0.0914  -1.2972   0.0000  -0.2084
  -3.500  -0.1253   0.00547   0.00113  -0.0609  0.7977  0.1008  -1.2276   0.0000  -0.2486
  -3.400  -0.1143   0.00540   0.00109  -0.0610  0.7958  0.1105  -1.1592   0.0000  -0.2960
  -3.300  -0.1034   0.00534   0.00106  -0.0610  0.7938  0.1199  -1.0918   0.0000  -0.3533
  -3.200  -0.0926   0.00528   0.00103  -0.0610  0.7918  0.1302  -1.0257   0.0000  -0.4234
  -3.100  -0.0818   0.00519   0.00099  -0.0610  0.7900  0.1459  -0.9610   0.0000  -0.5114
  -3.000  -0.0712   0.00509   0.00094  -0.0610  0.7881  0.1656  -0.8975   0.0000  -0.6245
  -2.900  -0.0606   0.00499   0.00091  -0.0610  0.7859  0.1846  -0.8353   0.0000  -0.7766
  -2.800  -0.0499   0.00492   0.00087  -0.0610  0.7837  0.2003  -0.7737   0.0000  -0.9953
  -2.700  -0.0392   0.00485   0.00084  -0.0610  0.7815  0.2149  -0.7136   0.0000  -1.3338
  -2.600  -0.0285   0.00475   0.00081  -0.0610  0.7797  0.2349  -0.6667   0.0000  -1.9301
  -2.500  -0.0180   0.00464   0.00077  -0.0610  0.7775  0.2598  -0.6275   0.0000  -3.1952
  -2.400  -0.0076   0.00453   0.00073  -0.0610  0.7751  0.2865  -0.5903   0.0000  -7.8442
  -2.300   0.0025   0.00442   0.00069  -0.0609  0.7726  0.3144  -0.5555   0.0000  24.5569
  -2.200   0.0129   0.00430   0.00066  -0.0608  0.7705  0.3434  -0.5248   0.0000   5.0452
  -2.100   0.0233   0.00418   0.00063  -0.0608  0.7681  0.3707  -0.4989   0.0000   2.8966
  -2.000   0.0338   0.00410   0.00060  -0.0607  0.7655  0.3921  -0.4758   0.0000   2.0678
  -1.900   0.0444   0.00404   0.00058  -0.0607  0.7628  0.4109  -0.4528   0.0000   1.6327
  -1.800   0.0551   0.00396   0.00055  -0.0607  0.7602  0.4317  -0.4298   0.0000   1.3640
  -1.700   0.0656   0.00387   0.00053  -0.0607  0.7573  0.4553  -0.4082   0.0000   1.1839
  -1.600   0.0759   0.00377   0.00051  -0.0606  0.7542  0.4825  -0.3902   0.0000   1.0557
  -1.500   0.0861   0.00368   0.00048  -0.0605  0.7513  0.5085  -0.3936   0.0000   0.9580
  -1.400   0.0969   0.00362   0.00046  -0.0605  0.7484  0.5274  -0.3984   0.0000   0.8788
  -1.300   0.1078   0.00358   0.00045  -0.0605  0.7449  0.5399  -0.4033   0.0000   0.8149
  -1.200   0.1186   0.00356   0.00044  -0.0605  0.7414  0.5518  -0.4084   0.0000   0.7629
  -1.100   0.1296   0.00351   0.00044  -0.0605  0.7381  0.5655  -0.4139   0.0000   0.7193
  -1.000   0.1404   0.00348   0.00043  -0.0605  0.7342  0.5791  -0.4196   0.0000   0.6828
  -0.900   0.1513   0.00345   0.00042  -0.0605  0.7306  0.5916  -0.4253   0.0000   0.6514
  -0.800   0.1623   0.00343   0.00042  -0.0605  0.7263  0.6020  -0.4313   0.0000   0.6240
  -0.600   0.1843   0.00341   0.00041  -0.0606  0.7175  0.6194  -0.4434   0.0000   0.5790
  -0.500   0.1953   0.00340   0.00041  -0.0606  0.7129  0.6275  -0.4499   0.0000   0.5604
  -0.300   0.2174   0.00339   0.00042  -0.0606  0.7040  0.6420  -0.4636   0.0000   0.5286
  -0.200   0.2285   0.00340   0.00042  -0.0607  0.6995  0.6471  -0.4704   0.0000   0.5150
  -0.100   0.2397   0.00340   0.00042  -0.0607  0.6946  0.6516  -0.4777   0.0000   0.5026
   0.000   0.2507   0.00342   0.00043  -0.0608  0.6892  0.6553  -0.4853   0.0000   0.4914
   0.100   0.2619   0.00344   0.00043  -0.0608  0.6835  0.6589  -0.4931   0.0000   0.4811
   0.200   0.2728   0.00345   0.00044  -0.0608  0.6774  0.6638  -0.5007   0.0000   0.4717
   0.300   0.2837   0.00348   0.00045  -0.0608  0.6697  0.6689  -0.5085   0.0000   0.4629
   0.400   0.2944   0.00350   0.00046  -0.0608  0.6611  0.6749  -0.5165   0.0000   0.4549
   0.500   0.3051   0.00353   0.00047  -0.0607  0.6514  0.6803  -0.5249   0.0000   0.4474
   0.600   0.3157   0.00356   0.00049  -0.0606  0.6415  0.6861  -0.5339   0.0000   0.4404
   0.700   0.3263   0.00361   0.00051  -0.0606  0.6309  0.6911  -0.5432   0.0000   0.4338
   0.800   0.3367   0.00365   0.00053  -0.0605  0.6194  0.6959  -0.5527   0.0000   0.4277
   0.900   0.3472   0.00371   0.00055  -0.0604  0.6070  0.7003  -0.5625   0.0000   0.4219
   1.000   0.3575   0.00377   0.00057  -0.0603  0.5931  0.7036  -0.5723   0.0000   0.4165
   1.100   0.3677   0.00384   0.00060  -0.0601  0.5787  0.7073  -0.5826   0.0000   0.4113
   1.200   0.3780   0.00391   0.00063  -0.0600  0.5646  0.7107  -0.5930   0.0000   0.4065
   1.300   0.3886   0.00398   0.00065  -0.0600  0.5526  0.7134  -0.6036   0.0000   0.4019
   1.400   0.3991   0.00403   0.00068  -0.0599  0.5410  0.7164  -0.6142   0.0000   0.3975
   1.500   0.4096   0.00409   0.00071  -0.0598  0.5298  0.7195  -0.6270   0.0000   0.3934
   1.600   0.4201   0.00416   0.00074  -0.0598  0.5172  0.7223  -0.6409   0.0000   0.3895
   1.700   0.4304   0.00424   0.00077  -0.0597  0.5030  0.7245  -0.6555   0.0000   0.3858
   1.800   0.4406   0.00432   0.00080  -0.0595  0.4878  0.7271  -0.6699   0.0000   0.3822
   1.900   0.4508   0.00440   0.00084  -0.0594  0.4736  0.7293  -0.6845   0.0000   0.3788
   2.000   0.4612   0.00448   0.00087  -0.0593  0.4604  0.7313  -0.6998   0.0000   0.3756
   2.100   0.4715   0.00456   0.00091  -0.0592  0.4465  0.7330  -0.7164   0.0000   0.3725
   2.200   0.4819   0.00464   0.00094  -0.0592  0.4327  0.7345  -0.7333   0.0000   0.3695
   2.400   0.5025   0.00481   0.00102  -0.0590  0.4060  0.7374  -0.7700   0.0000   0.3639
   2.500   0.5129   0.00489   0.00105  -0.0589  0.3939  0.7390  -0.7886   0.0000   0.3613
   2.600   0.5233   0.00496   0.00109  -0.0588  0.3820  0.7405  -0.8072   0.0000   0.3588
   2.700   0.5335   0.00505   0.00113  -0.0587  0.3678  0.7420  -0.8286   0.0000   0.3564
   2.800   0.5436   0.00516   0.00118  -0.0586  0.3520  0.7435  -0.8510   0.0000   0.3540
   2.900   0.5537   0.00526   0.00123  -0.0584  0.3379  0.7449  -0.8736   0.0000   0.3517
   3.000   0.5642   0.00534   0.00127  -0.0584  0.3261  0.7460  -0.8966   0.0000   0.3496
   3.100   0.5747   0.00541   0.00131  -0.0583  0.3163  0.7474  -0.9199   0.0000   0.3475
   3.200   0.5851   0.00549   0.00135  -0.0583  0.3063  0.7489  -0.9454   0.0000   0.3455
   3.300   0.5954   0.00557   0.00139  -0.0582  0.2947  0.7502  -0.9713   0.0000   0.3435
   3.400   0.6057   0.00566   0.00144  -0.0581  0.2822  0.7515  -0.9980   0.0000   0.3417
   3.500   0.6156   0.00578   0.00150  -0.0579  0.2662  0.7528  -1.0288   0.0000   0.3398
   3.600   0.6253   0.00591   0.00156  -0.0577  0.2488  0.7540  -1.0636   0.0000   0.3379
   3.700   0.6351   0.00604   0.00163  -0.0576  0.2324  0.7551  -1.0987   0.0000   0.3361
   3.800   0.6450   0.00616   0.00169  -0.0574  0.2178  0.7561  -1.1433   0.0000   0.3344
   3.900   0.6550   0.00628   0.00175  -0.0573  0.2040  0.7570  -1.1929   0.0000   0.3328
   4.000   0.6648   0.00640   0.00181  -0.0571  0.1893  0.7583  -1.2427   0.0000   0.3311
   4.100   0.6747   0.00651   0.00188  -0.0569  0.1764  0.7596  -1.2933   0.0000   0.3296
   4.200   0.6848   0.00661   0.00194  -0.0568  0.1655  0.7608  -1.3453   0.0000   0.3281
   4.300   0.6949   0.00672   0.00200  -0.0567  0.1543  0.7620  -1.4023   0.0000   0.3266
   4.400   0.7050   0.00683   0.00207  -0.0566  0.1443  0.7632  -1.4602   0.0000   0.3252
   4.500   0.7153   0.00692   0.00213  -0.0565  0.1363  0.7642  -1.5193   0.0000   0.3238
   4.600   0.7255   0.00701   0.00219  -0.0564  0.1280  0.7652  -1.5789   0.0000   0.3225
   4.700   0.7357   0.00711   0.00225  -0.0563  0.1196  0.7660  -1.6391   0.0000   0.3212
   4.800   0.7459   0.00722   0.00232  -0.0562  0.1113  0.7668  -1.7000   0.0000   0.3199
   4.900   0.7562   0.00731   0.00238  -0.0561  0.1041  0.7675  -1.7654   0.0000   0.3187
   5.000   0.7664   0.00740   0.00244  -0.0560  0.0977  0.7686  -1.8339   0.0000   0.3175
   5.100   0.7766   0.00749   0.00251  -0.0559  0.0911  0.7697  -1.9031   0.0000   0.3163
   5.200   0.7868   0.00759   0.00257  -0.0558  0.0851  0.7707  -1.9781   0.0000   0.3152
   5.300   0.7970   0.00768   0.00264  -0.0557  0.0794  0.7717  -2.0563   0.0000   0.3140
   5.400   0.8071   0.00778   0.00272  -0.0556  0.0729  0.7727  -2.1348   0.0000   0.3129
   5.500   0.8171   0.00789   0.00279  -0.0555  0.0665  0.7737  -2.2141   0.0000   0.3118
   5.600   0.8272   0.00799   0.00287  -0.0554  0.0602  0.7746  -2.2942   0.0000   0.3108
   5.700   0.8372   0.00810   0.00295  -0.0553  0.0545  0.7755  -2.3754   0.0000   0.3097
   5.800   0.8473   0.00821   0.00303  -0.0551  0.0496  0.7763  -2.4576   0.0000   0.3087
   5.900   0.8574   0.00831   0.00311  -0.0550  0.0450  0.7771  -2.5409   0.0000   0.3077
   6.000   0.8674   0.00842   0.00319  -0.0549  0.0406  0.7777  -2.6250   0.0000   0.3067
   6.200   0.8877   0.00861   0.00334  -0.0547  0.0340  0.7796  -2.7967   0.0000   0.3048
   6.300   0.8977   0.00870   0.00343  -0.0546  0.0308  0.7806  -2.8836   0.0000   0.3039
   6.400   0.9077   0.00881   0.00351  -0.0544  0.0277  0.7816  -2.9711   0.0000   0.3030
   6.500   0.9177   0.00891   0.00360  -0.0543  0.0252  0.7825  -3.0598   0.0000   0.3021
   6.600   0.9278   0.00900   0.00368  -0.0542  0.0232  0.7834  -3.1500   0.0000   0.3012
   6.700   0.9378   0.00910   0.00377  -0.0541  0.0209  0.7842  -3.2403   0.0000   0.3003
   6.800   0.9480   0.00919   0.00385  -0.0540  0.0195  0.7850  -3.3326   0.0000   0.2995
   6.900   0.9579   0.00929   0.00394  -0.0539  0.0177  0.7858  -3.4246   0.0000   0.2987
   7.000   0.9681   0.00938   0.00402  -0.0538  0.0167  0.7865  -3.5207   0.0000   0.2979
   7.100   0.9780   0.00948   0.00411  -0.0536  0.0152  0.7872  -3.6235   0.0000   0.2971
   7.200   0.9882   0.00957   0.00420  -0.0535  0.0143  0.7878  -3.7284   0.0000   0.2963
   7.300   0.9982   0.00966   0.00428  -0.0534  0.0135  0.7884  -3.8341   0.0000   0.2955
   7.500   1.0181   0.00985   0.00446  -0.0532  0.0119  0.7901  -4.0477   0.0000   0.2940
   7.600   1.0281   0.00993   0.00455  -0.0530  0.0115  0.7911  -4.1571   0.0000   0.2932
   7.700   1.0380   0.01003   0.00464  -0.0529  0.0109  0.7920  -4.2668   0.0000   0.2925
   7.800   1.0478   0.01013   0.00474  -0.0528  0.0103  0.7929  -4.3768   0.0000   0.2918
   7.900   1.0576   0.01023   0.00484  -0.0526  0.0097  0.7937  -4.4865   0.0000   0.2910
   8.000   1.0676   0.01031   0.00493  -0.0525  0.0095  0.7945  -4.6004   0.0000   0.2903
   8.100   1.0776   0.01040   0.00501  -0.0524  0.0093  0.7953  -4.7151   0.0000   0.2896
   8.200   1.0875   0.01049   0.00510  -0.0522  0.0091  0.7960  -4.8302   0.0000   0.2889
   8.300   1.0972   0.01059   0.00520  -0.0521  0.0088  0.7968  -4.9459   0.0000   0.2883
   8.400   1.1069   0.01069   0.00530  -0.0519  0.0085  0.7974  -5.0620   0.0000   0.2876
   8.500   1.1165   0.01081   0.00541  -0.0517  0.0081  0.7981  -5.1779   0.0000   0.2869
   8.600   1.1260   0.01093   0.00553  -0.0515  0.0076  0.7987  -5.2927   0.0000   0.2862
   8.800   1.1453   0.01112   0.00573  -0.0512  0.0074  0.8003  -5.5321   0.0000   0.2848
   8.900   1.1550   0.01120   0.00583  -0.0510  0.0073  0.8013  -5.6540   0.0000   0.2842
   9.000   1.1646   0.01130   0.00592  -0.0508  0.0071  0.8022  -5.7855   0.0000   0.2835
   9.100   1.1741   0.01140   0.00603  -0.0507  0.0070  0.8031  -5.9187   0.0000   0.2829
   9.200   1.1835   0.01150   0.00614  -0.0505  0.0068  0.8039  -6.0525   0.0000   0.2822
   9.300   1.1929   0.01161   0.00625  -0.0502  0.0066  0.8047  -6.1868   0.0000   0.2816
   9.400   1.2021   0.01173   0.00637  -0.0500  0.0064  0.8055  -6.3216   0.0000   0.2809
   9.500   1.2112   0.01186   0.00649  -0.0497  0.0061  0.8063  -6.4560   0.0000   0.2803
   9.600   1.2201   0.01200   0.00664  -0.0494  0.0058  0.8070  -6.5887   0.0000   0.2796
   9.700   1.2289   0.01214   0.00679  -0.0491  0.0055  0.8077  -6.7207   0.0000   0.2789
   9.800   1.2381   0.01224   0.00689  -0.0489  0.0055  0.8084  -6.8619   0.0000   0.2783
   9.900   1.2471   0.01234   0.00700  -0.0486  0.0054  0.8090  -7.0022   0.0000   0.2776
  10.100   1.2641   0.01254   0.00721  -0.0478  0.0053  0.8108  -7.2784   0.0000   0.2762
  10.200   1.2725   0.01265   0.00733  -0.0475  0.0052  0.8118  -7.4174   0.0000   0.2755
  10.300   1.2810   0.01277   0.00745  -0.0471  0.0052  0.8128  -7.5576   0.0000   0.2748
  10.400   1.2894   0.01289   0.00758  -0.0467  0.0051  0.8137  -7.6988   0.0000   0.2742
  10.500   1.2978   0.01302   0.00771  -0.0463  0.0050  0.8147  -7.8406   0.0000   0.2735
  10.600   1.3061   0.01315   0.00785  -0.0459  0.0049  0.8156  -7.9830   0.0000   0.2728
  10.700   1.3144   0.01328   0.00799  -0.0455  0.0048  0.8165  -8.1258   0.0000   0.2721
  10.800   1.3225   0.01343   0.00813  -0.0451  0.0047  0.8174  -8.2688   0.0000   0.2715
  10.900   1.3305   0.01357   0.00829  -0.0447  0.0046  0.8183  -8.4116   0.0000   0.2708
  11.000   1.3384   0.01373   0.00845  -0.0443  0.0044  0.8191  -8.5536   0.0000   0.2701
  11.200   1.3536   0.01407   0.00881  -0.0433  0.0042  0.8211  -8.8332   0.0000   0.2687
  11.300   1.3609   0.01425   0.00901  -0.0427  0.0040  0.8223  -8.9701   0.0000   0.2680
  11.400   1.3679   0.01445   0.00923  -0.0421  0.0039  0.8233  -9.1049   0.0000   0.2672
  11.500   1.3754   0.01462   0.00942  -0.0416  0.0039  0.8244  -9.2475   0.0000   0.2665
  11.600   1.3832   0.01477   0.00957  -0.0412  0.0039  0.8255  -9.3976   0.0000   0.2659
  11.700   1.3910   0.01491   0.00972  -0.0408  0.0039  0.8265  -9.5484   0.0000   0.2653
  11.800   1.3987   0.01506   0.00988  -0.0404  0.0038  0.8275  -9.7000   0.0000   0.2646
  11.900   1.4064   0.01521   0.01003  -0.0399  0.0038  0.8285  -9.8523   0.0000   0.2640
  12.000   1.4140   0.01536   0.01020  -0.0395  0.0038  0.8294  -10.0050   0.0000   0.2634
  12.200   1.4289   0.01568   0.01053  -0.0385  0.0038  0.8321  -10.3110   0.0000   0.2621
  12.300   1.4363   0.01584   0.01071  -0.0381  0.0037  0.8336  -10.4664   0.0000   0.2615
  12.400   1.4435   0.01601   0.01089  -0.0376  0.0037  0.8350  -10.6299   0.0000   0.2608
  12.500   1.4507   0.01618   0.01107  -0.0371  0.0037  0.8365  -10.7938   0.0000   0.2602
  12.600   1.4578   0.01636   0.01126  -0.0366  0.0036  0.8380  -10.9578   0.0000   0.2596
  12.800   1.4717   0.01673   0.01166  -0.0356  0.0035  0.8413  -11.2860   0.0000   0.2583
  12.900   1.4785   0.01693   0.01187  -0.0351  0.0035  0.8433  -11.4503   0.0000   0.2577
  13.000   1.4853   0.01712   0.01208  -0.0345  0.0035  0.8453  -11.6151   0.0000   0.2570
  13.100   1.4919   0.01733   0.01230  -0.0340  0.0034  0.8473  -11.7800   0.0000   0.2564
  13.300   1.5049   0.01775   0.01275  -0.0329  0.0033  0.8518  -12.1098   0.0000   0.2551
  13.400   1.5113   0.01796   0.01299  -0.0323  0.0033  0.8545  -12.2748   0.0000   0.2545
  13.500   1.5176   0.01819   0.01323  -0.0318  0.0033  0.8574  -12.4401   0.0000   0.2539
  13.600   1.5237   0.01842   0.01347  -0.0312  0.0032  0.8608  -12.6048   0.0000   0.2532
  13.700   1.5297   0.01865   0.01373  -0.0306  0.0032  0.8651  -12.7689   0.0000   0.2526
  13.800   1.5355   0.01889   0.01400  -0.0300  0.0031  0.8703  -12.9317   0.0000   0.2519
  13.900   1.5412   0.01914   0.01427  -0.0294  0.0031  0.8775  -13.0935   0.0000   0.2513
  14.000   1.5465   0.01938   0.01456  -0.0287  0.0030  0.8887  -13.2526   0.0000   0.2506
  14.200   1.5573   0.01975   0.01518  -0.0274  0.0029  1.0000  -13.5725   0.0000   0.2492
  14.300   1.5623   0.02007   0.01552  -0.0267  0.0028  1.0000  -13.7287   0.0000   0.2486
  14.400   1.5671   0.02041   0.01588  -0.0260  0.0028  1.0000  -13.8824   0.0000   0.2479
  14.500   1.5716   0.02077   0.01626  -0.0253  0.0027  1.0000  -14.0322   0.0000   0.2472
  14.600   1.5757   0.02116   0.01668  -0.0246  0.0026  1.0000  -14.1781   0.0000   0.2465
  14.700   1.5793   0.02159   0.01714  -0.0238  0.0026  1.0000  -14.3174   0.0000   0.2458
  14.800   1.5832   0.02200   0.01757  -0.0231  0.0025  1.0000  -14.4633   0.0000   0.2451
  14.900   1.5885   0.02231   0.01789  -0.0225  0.0025  1.0000  -14.6305   0.0000   0.2445
  15.000   1.5937   0.02262   0.01822  -0.0219  0.0025  1.0000  -14.7975   0.0000   0.2439
  15.100   1.5988   0.02294   0.01855  -0.0214  0.0025  1.0000  -14.9648   0.0000   0.2433
  15.200   1.6039   0.02327   0.01890  -0.0208  0.0025  1.0000  -15.1314   0.0000   0.2427
  15.300   1.6088   0.02361   0.01925  -0.0203  0.0025  1.0000  -15.2986   0.0000   0.2421
  15.400   1.6137   0.02396   0.01961  -0.0197  0.0025  1.0000  -15.4648   0.0000   0.2416
  15.500   1.6185   0.02432   0.01999  -0.0192  0.0025  1.0000  -15.6312   0.0000   0.2410
  15.600   1.6231   0.02468   0.02037  -0.0186  0.0025  1.0000  -15.7971   0.0000   0.2404
  15.700   1.6276   0.02506   0.02076  -0.0181  0.0025  1.0000  -15.9616   0.0000   0.2398
  15.800   1.6320   0.02544   0.02116  -0.0175  0.0025  1.0000  -16.1259   0.0000   0.2393
  15.900   1.6363   0.02584   0.02157  -0.0169  0.0025  1.0000  -16.2886   0.0000   0.2387
  16.000   1.6405   0.02625   0.02199  -0.0164  0.0025  1.0000  -16.4518   0.0000   0.2381
  16.100   1.6445   0.02667   0.02243  -0.0158  0.0025  1.0000  -16.6137   0.0000   0.2375
  16.200   1.6485   0.02710   0.02288  -0.0153  0.0025  1.0000  -16.7754   0.0000   0.2370
  16.300   1.6523   0.02754   0.02334  -0.0147  0.0024  1.0000  -16.9365   0.0000   0.2364
  16.400   1.6561   0.02800   0.02381  -0.0142  0.0024  1.0000  -17.0962   0.0000   0.2358
  16.500   1.6597   0.02847   0.02430  -0.0137  0.0024  1.0000  -17.2560   0.0000   0.2353
  16.600   1.6631   0.02895   0.02480  -0.0131  0.0024  1.0000  -17.4133   0.0000   0.2347
  16.700   1.6665   0.02944   0.02531  -0.0126  0.0024  1.0000  -17.5701   0.0000   0.2342
  16.800   1.6695   0.02996   0.02585  -0.0120  0.0024  1.0000  -17.7240   0.0000   0.2336
  16.900   1.6726   0.03048   0.02639  -0.0115  0.0024  1.0000  -17.8787   0.0000   0.2331
  17.000   1.6754   0.03103   0.02695  -0.0110  0.0024  1.0000  -18.0307   0.0000   0.2325
  17.100   1.6783   0.03158   0.02753  -0.0105  0.0024  1.0000  -18.1834   0.0000   0.2320
  17.200   1.6809   0.03216   0.02813  -0.0100  0.0024  1.0000  -18.3333   0.0000   0.2315
  17.300   1.6834   0.03275   0.02874  -0.0095  0.0023  1.0000  -18.4836   0.0000   0.2309
  17.400   1.6858   0.03336   0.02937  -0.0090  0.0023  1.0000  -18.6311   0.0000   0.2304
  17.500   1.6881   0.03399   0.03002  -0.0085  0.0023  1.0000  -18.7792   0.0000   0.2299
  17.600   1.6902   0.03464   0.03070  -0.0081  0.0023  1.0000  -18.9241   0.0000   0.2294
  17.700   1.6923   0.03531   0.03138  -0.0076  0.0023  1.0000  -19.0687   0.0000   0.2289
  17.800   1.6940   0.03600   0.03210  -0.0072  0.0023  1.0000  -19.2092   0.0000   0.2284
  17.900   1.6957   0.03671   0.03283  -0.0068  0.0023  1.0000  -19.3507   0.0000   0.2279
  18.000   1.6972   0.03745   0.03359  -0.0064  0.0023  1.0000  -19.4886   0.0000   0.2274
  18.100   1.6987   0.03820   0.03437  -0.0060  0.0022  1.0000  -19.6277   0.0000   0.2270
  18.200   1.7000   0.03900   0.03519  -0.0057  0.0022  1.0000  -19.7629   0.0000   0.2265
  18.300   1.7012   0.03980   0.03601  -0.0053  0.0022  1.0000  -19.8985   0.0000   0.2261
  18.400   1.7022   0.04064   0.03688  -0.0050  0.0022  1.0000  -20.0309   0.0000   0.2257
  18.500   1.7031   0.04151   0.03777  -0.0047  0.0022  1.0000  -20.1618   0.0000   0.2252
  18.600   1.7039   0.04240   0.03868  -0.0045  0.0022  1.0000  -20.2916   0.0000   0.2248
  18.700   1.7044   0.04333   0.03964  -0.0042  0.0022  1.0000  -20.4167   0.0000   0.2244
  18.800   1.7049   0.04428   0.04061  -0.0040  0.0022  1.0000  -20.5420   0.0000   0.2241
  18.900   1.7049   0.04527   0.04164  -0.0038  0.0021  1.0000  -20.6613   0.0000   0.2237
  19.000   1.7048   0.04630   0.04269  -0.0036  0.0021  1.0000  -20.7779   0.0000   0.2233
  19.100   1.7046   0.04735   0.04376  -0.0035  0.0021  1.0000  -20.8935   0.0000   0.2230
  19.200   1.7040   0.04846   0.04490  -0.0034  0.0021  1.0000  -21.0039   0.0000   0.2227
  19.300   1.7034   0.04959   0.04607  -0.0033  0.0021  1.0000  -21.1127   0.0000   0.2224
  19.400   1.7027   0.05077   0.04726  -0.0033  0.0021  1.0000  -21.2200   0.0000   0.2221
  19.500   1.7015   0.05200   0.04853  -0.0033  0.0021  1.0000  -21.3214   0.0000   0.2218
  19.600   1.7002   0.05327   0.04983  -0.0033  0.0021  1.0000  -21.4192   0.0000   0.2216
  19.700   1.6988   0.05459   0.05117  -0.0034  0.0020  1.0000  -21.5148   0.0000   0.2213
  19.800   1.6971   0.05595   0.05256  -0.0035  0.0020  1.0000  -21.6060   0.0000   0.2211
  19.900   1.6949   0.05738   0.05403  -0.0036  0.0020  1.0000  -21.6906   0.0000   0.2209
  20.000   1.6926   0.05887   0.05555  -0.0038  0.0020  1.0000  -21.7710   0.0000   0.2208


