xflr5 v6.32

 Calculated polar for: finalfoil mod1

 1 1 Reynolds number fixed          Mach number fixed         

 xtrf =   1.000 (top)        1.000 (bottom)
 Mach =   0.000     Re =     0.100 e 6     Ncrit =   9.000

  alpha     CL        CD       CDp       Cm    Top Xtr Bot Xtr   Cpmin    Chinge    XCp    
 ------- -------- --------- --------- -------- ------- ------- -------- --------- ---------
 -11.700  -0.4611   0.12338   0.11825  -0.0404  1.0000  0.1079  -1.8345   0.0000   0.1480
 -11.600  -0.4534   0.12234   0.11718  -0.0395  1.0000  0.1099  -1.7918   0.0000   0.1485
 -11.500  -0.4538   0.12096   0.11582  -0.0400  1.0000  0.1121  -1.8006   0.0000   0.1476
 -11.400  -0.4621   0.11919   0.11410  -0.0419  1.0000  0.1138  -1.8579   0.0000   0.1455
 -11.300  -0.4746   0.11720   0.11217  -0.0444  1.0000  0.1144  -1.9396   0.0000   0.1429
 -11.200  -0.4564   0.11630   0.11122  -0.0415  1.0000  0.1166  -1.8370   0.0000   0.1452
 -11.100  -0.4538   0.11513   0.11005  -0.0414  1.0000  0.1189  -1.8247   0.0000   0.1451
 -11.000  -0.4598   0.11350   0.10846  -0.0427  1.0000  0.1211  -1.8630   0.0000   0.1438
 -10.900  -0.4731   0.11148   0.10651  -0.0451  1.0000  0.1220  -1.9423   0.0000   0.1417
 -10.500  -0.4751   0.10586   0.10096  -0.0456  1.0000  0.1299  -1.9543   0.0000   0.1416
 -10.400  -0.4913   0.10376   0.09893  -0.0479  1.0000  0.1303  -2.0365   0.0000   0.1406
 -10.300  -0.4661   0.10337   0.09848  -0.0441  1.0000  0.1330  -1.9091   0.0000   0.1431
 -10.200  -0.4658   0.10218   0.09731  -0.0439  1.0000  0.1350  -1.9058   0.0000   0.1436
 -10.100  -0.4764   0.10055   0.09573  -0.0450  1.0000  0.1374  -1.9526   0.0000   0.1437
 -10.000  -0.4974   0.09850   0.09377  -0.0472  1.0000  0.1384  -2.0447   0.0000   0.1438
  -9.900  -0.5153   0.09649   0.09183  -0.0488  1.0000  0.1386  -2.1189   0.0000   0.1444
  -9.700  -0.4831   0.09534   0.09063  -0.0439  1.0000  0.1435  -1.9667   0.0000   0.1479
  -9.600  -0.4986   0.09376   0.08911  -0.0449  1.0000  0.1459  -2.0224   0.0000   0.1493
  -9.500  -0.5226   0.09184   0.08728  -0.0464  1.0000  0.1467  -2.1092   0.0000   0.1511
  -9.400  -0.5413   0.09010   0.08560  -0.0471  1.0000  0.1469  -2.1703   0.0000   0.1533
  -9.300  -0.5577   0.08869   0.08423  -0.0470  1.0000  0.1470  -2.2171   0.0000   0.1564
  -9.200  -0.5731   0.08757   0.08316  -0.0463  1.0000  0.1470  -2.2550   0.0000   0.1602
  -9.100  -0.5878   0.08664   0.08226  -0.0452  1.0000  0.1470  -2.2872   0.0000   0.1644
  -9.000  -0.6021   0.08583   0.08148  -0.0437  1.0000  0.1470  -2.3157   0.0000   0.1689
  -8.900  -0.6163   0.08508   0.08075  -0.0421  1.0000  0.1470  -2.3429   0.0000   0.1734
  -8.800  -0.6311   0.08418   0.07986  -0.0407  1.0000  0.1470  -2.3748   0.0000   0.1775
  -8.700  -0.6464   0.08318   0.07885  -0.0394  1.0000  0.1471  -2.4109   0.0000   0.1812
  -7.400  -0.7436   0.05416   0.04809  -0.0266  1.0000  0.0789  -3.2819   0.0000   0.2074
  -7.300  -0.7368   0.05289   0.04695  -0.0264  1.0000  0.0796  -3.2216   0.0000   0.2075
  -7.200  -0.7315   0.05309   0.04730  -0.0260  1.0000  0.0869  -3.1071   0.0000   0.2079
  -7.100  -0.7270   0.05381   0.04815  -0.0254  1.0000  0.0979  -2.9850   0.0000   0.2085
  -6.900  -0.7283   0.04308   0.03588  -0.0216  1.0000  0.0595  -3.5593   0.0000   0.2136
  -6.800  -0.7229   0.04179   0.03447  -0.0209  1.0000  0.0589  -3.5488   0.0000   0.2143
  -6.700  -0.7173   0.04044   0.03297  -0.0203  1.0000  0.0582  -3.5463   0.0000   0.2151
  -6.600  -0.7114   0.03895   0.03125  -0.0195  1.0000  0.0571  -3.5608   0.0000   0.2160
  -6.500  -0.7055   0.03715   0.02899  -0.0185  1.0000  0.0554  -3.6222   0.0000   0.2172
  -6.400  -0.6986   0.03593   0.02734  -0.0175  1.0000  0.0546  -3.6549   0.0000   0.2183
  -6.300  -0.6904   0.03488   0.02613  -0.0171  1.0000  0.0545  -3.6336   0.0000   0.2188
  -6.200  -0.6821   0.03389   0.02496  -0.0166  1.0000  0.0545  -3.6135   0.0000   0.2192
  -6.100  -0.6736   0.03295   0.02383  -0.0160  1.0000  0.0546  -3.5937   0.0000   0.2197
  -6.000  -0.6645   0.03202   0.02287  -0.0158  1.0000  0.0551  -3.5502   0.0000   0.2199
  -5.900  -0.6557   0.03126   0.02212  -0.0155  1.0000  0.0557  -3.4959   0.0000   0.2200
  -5.800  -0.6471   0.03065   0.02148  -0.0151  1.0000  0.0569  -3.4392   0.0000   0.2203
  -5.700  -0.6385   0.03004   0.02076  -0.0147  1.0000  0.0584  -3.3939   0.0000   0.2207
  -5.600  -0.6296   0.02941   0.01992  -0.0142  1.0000  0.0599  -3.3634   0.0000   0.2212
  -5.500  -0.6206   0.02873   0.01925  -0.0139  1.0000  0.0614  -3.3081   0.0000   0.2214
  -5.400  -0.6118   0.02818   0.01872  -0.0136  1.0000  0.0630  -3.2492   0.0000   0.2217
  -5.300  -0.6026   0.02759   0.01805  -0.0132  1.0000  0.0645  -3.2060   0.0000   0.2221
  -5.200  -0.5931   0.02702   0.01732  -0.0126  1.0000  0.0661  -3.1719   0.0000   0.2227
  -5.100  -0.5844   0.02643   0.01683  -0.0124  1.0000  0.0682  -3.1090   0.0000   0.2229
  -5.000  -0.5756   0.02600   0.01637  -0.0120  1.0000  0.0713  -3.0612   0.0000   0.2233
  -4.900  -0.5671   0.02551   0.01591  -0.0116  1.0000  0.0745  -3.0156   0.0000   0.2236
  -4.800  -0.5583   0.02509   0.01543  -0.0112  1.0000  0.0784  -2.9796   0.0000   0.2241
  -4.700  -0.5498   0.02456   0.01501  -0.0109  1.0000  0.0819  -2.9342   0.0000   0.2245
  -4.600  -0.5412   0.02409   0.01457  -0.0105  1.0000  0.0869  -2.8950   0.0000   0.2250
  -4.500  -0.5328   0.02366   0.01418  -0.0101  1.0000  0.0933  -2.8508   0.0000   0.2254
  -4.400  -0.5245   0.02319   0.01379  -0.0098  1.0000  0.1008  -2.8063   0.0000   0.2258
  -4.300  -0.5162   0.02271   0.01341  -0.0095  1.0000  0.1105  -2.7609   0.0000   0.2261
  -4.200  -0.5077   0.02220   0.01301  -0.0092  1.0000  0.1244  -2.7177   0.0000   0.2264
  -4.100  -0.4991   0.02160   0.01259  -0.0090  1.0000  0.1461  -2.6753   0.0000   0.2266
  -4.000  -0.4904   0.02076   0.01211  -0.0090  1.0000  0.1859  -2.6327   0.0000   0.2264
  -3.900  -0.4817   0.01934   0.01155  -0.0094  1.0000  0.2977  -2.5855   0.0000   0.2252
  -3.800  -0.4768   0.01797   0.01166  -0.0084  1.0000  0.5375  -2.5304   0.0000   0.2272
  -3.700  -0.4740   0.01808   0.01220  -0.0058  1.0000  0.6358  -2.4752   0.0000   0.2326
  -3.600  -0.4697   0.01836   0.01257  -0.0038  1.0000  0.6824  -2.4149   0.0000   0.2369
  -3.500  -0.4645   0.01867   0.01287  -0.0021  1.0000  0.7137  -2.3513   0.0000   0.2405
  -3.400  -0.4597   0.01900   0.01317  -0.0003  1.0000  0.7362  -2.2882   0.0000   0.2444
  -3.300  -0.4552   0.01933   0.01347   0.0015  1.0000  0.7539  -2.2262   0.0000   0.2486
  -3.200  -0.4506   0.01963   0.01373   0.0033  1.0000  0.7697  -2.1641   0.0000   0.2527
  -3.100  -0.4466   0.01990   0.01398   0.0053  1.0000  0.7831  -2.1039   0.0000   0.2572
  -3.000  -0.4424   0.02014   0.01418   0.0071  1.0000  0.7960  -2.0438   0.0000   0.2615
  -2.900  -0.4381   0.02034   0.01432   0.0089  1.0000  0.8083  -1.9839   0.0000   0.2658
  -2.800  -0.4340   0.02050   0.01445   0.0107  1.0000  0.8197  -1.9250   0.0000   0.2702
  -2.700  -0.4304   0.02064   0.01456   0.0126  1.0000  0.8301  -1.8683   0.0000   0.2750
  -2.600  -0.4268   0.02076   0.01464   0.0145  1.0000  0.8401  -1.8121   0.0000   0.2798
  -2.500  -0.4231   0.02084   0.01469   0.0164  1.0000  0.8499  -1.7563   0.0000   0.2846
  -2.400  -0.4195   0.02091   0.01472   0.0182  1.0000  0.8594  -1.7010   0.0000   0.2894
  -2.300  -0.4157   0.02095   0.01473   0.0200  1.0000  0.8687  -1.6473   0.0000   0.2942
  -2.200  -0.4118   0.02098   0.01473   0.0217  1.0000  0.8778  -1.5979   0.0000   0.2989
  -2.100  -0.4077   0.02100   0.01471   0.0234  1.0000  0.8868  -1.5481   0.0000   0.3036
  -2.000  -0.4033   0.02102   0.01469   0.0250  1.0000  0.8957  -1.4977   0.0000   0.3083
  -1.900  -0.3981   0.02104   0.01467   0.0264  1.0000  0.9046  -1.4456   0.0000   0.3127
  -1.800  -0.3920   0.02107   0.01465   0.0276  1.0000  0.9135  -1.3909   0.0000   0.3168
  -1.700  -0.3812   0.02120   0.01472   0.0278  0.9989  0.9228  -1.3225   0.0000   0.3196
  -1.600  -0.3652   0.02144   0.01489   0.0270  0.9969  0.9322  -1.2388   0.0000   0.3207
  -1.500  -0.3441   0.02179   0.01516   0.0254  0.9951  0.9417  -1.1405   0.0000   0.3204
  -1.400  -0.3143   0.02230   0.01558   0.0222  0.9938  0.9532  -1.0183   0.0000   0.3171
  -1.300  -0.2698   0.02305   0.01619   0.0161  0.9936  0.9643  -0.8583   0.0000   0.3061
  -1.200  -0.2264   0.02363   0.01665   0.0098  0.9934  0.9711  -0.7288   0.0000   0.2893
  -1.100  -0.1966   0.02393   0.01686   0.0057  0.9920  0.9744  -0.6494   0.0000   0.2749
  -1.000  -0.1710   0.02415   0.01701   0.0024  0.9903  0.9772  -0.5865   0.0000   0.2593
  -0.900  -0.1475   0.02433   0.01711  -0.0006  0.9883  0.9799  -0.5366   0.0000   0.2411
  -0.800  -0.1234   0.02450   0.01722  -0.0037  0.9863  0.9820  -0.4959   0.0000   0.2147
  -0.700  -0.0994   0.02468   0.01735  -0.0068  0.9844  0.9845  -0.4583   0.0000   0.1757
  -0.600  -0.0776   0.02482   0.01744  -0.0095  0.9821  0.9868  -0.4271   0.0000   0.1209
  -0.500  -0.0548   0.02496   0.01754  -0.0124  0.9799  0.9889  -0.3986   0.0000   0.0161
  -0.400  -0.0321   0.02511   0.01763  -0.0153  0.9777  0.9910  -0.3718   0.0000  -0.2372
  -0.300  -0.0107   0.02523   0.01771  -0.0179  0.9753  0.9932  -0.3471   0.0000  -1.4428
  -0.200   0.0126   0.02537   0.01783  -0.0208  0.9733  0.9952  -0.3497   0.0000   1.9233
  -0.100   0.0328   0.02547   0.01790  -0.0232  0.9705  0.9972  -0.3600   0.0000   0.9622
   0.000   0.0559   0.02561   0.01800  -0.0262  0.9685  0.9992  -0.3718   0.0000   0.7192
   0.100   0.0711   0.02568   0.01805  -0.0276  0.9652  1.0000  -0.3804   0.0000   0.6383
   0.200   0.0832   0.02573   0.01809  -0.0284  0.9615  1.0000  -0.3877   0.0000   0.5910
   0.300   0.0972   0.02581   0.01815  -0.0296  0.9583  1.0000  -0.3959   0.0000   0.5531
   0.400   0.1094   0.02587   0.01820  -0.0304  0.9546  1.0000  -0.4033   0.0000   0.5260
   0.500   0.1202   0.02592   0.01824  -0.0309  0.9507  1.0000  -0.4103   0.0000   0.5051
   0.600   0.1344   0.02600   0.01831  -0.0320  0.9474  1.0000  -0.4192   0.0000   0.4861
   0.700   0.1458   0.02605   0.01836  -0.0326  0.9435  1.0000  -0.4268   0.0000   0.4714
   0.800   0.1561   0.02611   0.01841  -0.0330  0.9394  1.0000  -0.4342   0.0000   0.4589
   0.900   0.1725   0.02620   0.01849  -0.0345  0.9365  1.0000  -0.4450   0.0000   0.4472
   1.000   0.1805   0.02623   0.01853  -0.0344  0.9318  1.0000  -0.4516   0.0000   0.4377
   1.100   0.1920   0.02630   0.01859  -0.0350  0.9279  1.0000  -0.4605   0.0000   0.4290
   1.200   0.2059   0.02636   0.01865  -0.0359  0.9243  1.0000  -0.4709   0.0000   0.4213
   1.300   0.2142   0.02641   0.01870  -0.0359  0.9197  1.0000  -0.4783   0.0000   0.4141
   1.400   0.2318   0.02648   0.01877  -0.0374  0.9169  1.0000  -0.4916   0.0000   0.4081
   1.500   0.2380   0.02651   0.01881  -0.0370  0.9117  1.0000  -0.4981   0.0000   0.4018
   1.600   0.2511   0.02656   0.01888  -0.0377  0.9080  1.0000  -0.5095   0.0000   0.3966
   1.700   0.2629   0.02660   0.01892  -0.0382  0.9038  1.0000  -0.5201   0.0000   0.3916
   1.800   0.2715   0.02664   0.01897  -0.0381  0.8990  1.0000  -0.5288   0.0000   0.3865
   1.900   0.2883   0.02667   0.01901  -0.0394  0.8958  1.0000  -0.5437   0.0000   0.3829
   2.000   0.2944   0.02670   0.01905  -0.0389  0.8905  1.0000  -0.5522   0.0000   0.3780
   2.100   0.3138   0.02672   0.01909  -0.0406  0.8877  1.0000  -0.5709   0.0000   0.3753
   2.200   0.3181   0.02674   0.01912  -0.0397  0.8820  1.0000  -0.5788   0.0000   0.3706
   2.300   0.3394   0.02674   0.01916  -0.0417  0.8796  1.0000  -0.6003   0.0000   0.3687
   2.400   0.3423   0.02676   0.01918  -0.0405  0.8735  1.0000  -0.6085   0.0000   0.3640
   2.500   0.3641   0.02673   0.01919  -0.0425  0.8710  1.0000  -0.6317   0.0000   0.3625
   2.600   0.3673   0.02673   0.01921  -0.0414  0.8649  1.0000  -0.6404   0.0000   0.3582
   2.800   0.3926   0.02667   0.01920  -0.0422  0.8563  1.0000  -0.6758   0.0000   0.3529
   3.000   0.4185   0.02657   0.01916  -0.0430  0.8475  1.0000  -0.7143   0.0000   0.3481
   3.200   0.4453   0.02641   0.01907  -0.0439  0.8387  1.0000  -0.7564   0.0000   0.3438
   3.400   0.4735   0.02618   0.01892  -0.0449  0.8298  1.0000  -0.8047   0.0000   0.3399
   3.600   0.5030   0.02587   0.01870  -0.0460  0.8209  1.0000  -0.8590   0.0000   0.3364
   3.700   0.5366   0.02550   0.01842  -0.0496  0.8193  1.0000  -0.9116   0.0000   0.3375
   3.800   0.5345   0.02547   0.01841  -0.0473  0.8119  1.0000  -0.9212   0.0000   0.3334
   3.900   0.5642   0.02506   0.01808  -0.0501  0.8094  1.0000  -0.9739   0.0000   0.3338
   4.000   0.5695   0.02492   0.01798  -0.0490  0.8029  1.0000  -0.9958   0.0000   0.3308
   4.100   0.6063   0.02428   0.01744  -0.0528  0.8013  1.0000  -1.0767   0.0000   0.3320
   4.200   0.6069   0.02419   0.01738  -0.0508  0.7939  1.0000  -1.0975   0.0000   0.3285
   4.300   0.6407   0.02343   0.01674  -0.0540  0.7919  1.0000  -1.1991   0.0000   0.3290
   4.400   0.6423   0.02330   0.01664  -0.0521  0.7845  1.0000  -1.2290   0.0000   0.3257
   4.500   0.6749   0.02247   0.01592  -0.0549  0.7821  1.0000  -1.3375   0.0000   0.3260
   4.600   0.6765   0.02233   0.01581  -0.0530  0.7745  1.0000  -1.3684   0.0000   0.3228
   4.800   0.7103   0.02130   0.01493  -0.0537  0.7639  1.0000  -1.5196   0.0000   0.3200
   4.900   0.7175   0.02100   0.01468  -0.0526  0.7567  1.0000  -1.5709   0.0000   0.3176
   5.000   0.7456   0.02018   0.01396  -0.0546  0.7523  1.0000  -1.6842   0.0000   0.3175
   5.100   0.7497   0.01996   0.01378  -0.0530  0.7440  1.0000  -1.7278   0.0000   0.3149
   5.200   0.7579   0.01964   0.01351  -0.0520  0.7360  1.0000  -1.7873   0.0000   0.3127
   5.300   0.7702   0.01921   0.01314  -0.0516  0.7279  1.0000  -1.8630   0.0000   0.3110
   5.400   0.7837   0.01876   0.01274  -0.0514  0.7192  1.0000  -1.9435   0.0000   0.3095
   5.500   0.7951   0.01838   0.01242  -0.0508  0.7094  1.0000  -2.0178   0.0000   0.3077
   5.600   0.8031   0.01809   0.01217  -0.0498  0.6985  1.0000  -2.0812   0.0000   0.3057
   5.700   0.8097   0.01785   0.01196  -0.0485  0.6865  1.0000  -2.1405   0.0000   0.3035
   5.800   0.8170   0.01761   0.01175  -0.0474  0.6734  1.0000  -2.2022   0.0000   0.3015
   5.900   0.8276   0.01733   0.01147  -0.0467  0.6585  1.0000  -2.2814   0.0000   0.2999
   6.000   0.8343   0.01718   0.01132  -0.0455  0.6421  1.0000  -2.3477   0.0000   0.2979
   6.100   0.8441   0.01699   0.01110  -0.0448  0.6231  1.0000  -2.4272   0.0000   0.2963
   6.200   0.8512   0.01691   0.01097  -0.0437  0.6025  1.0000  -2.4962   0.0000   0.2944
   6.400   0.8644   0.01693   0.01083  -0.0414  0.5546  1.0000  -2.6323   0.0000   0.2908
   6.500   0.8694   0.01705   0.01083  -0.0401  0.5278  1.0000  -2.6945   0.0000   0.2889
   6.600   0.8741   0.01724   0.01087  -0.0388  0.4997  1.0000  -2.7558   0.0000   0.2870
   6.700   0.8777   0.01749   0.01097  -0.0373  0.4709  1.0000  -2.8125   0.0000   0.2851
   6.800   0.8807   0.01780   0.01110  -0.0358  0.4416  1.0000  -2.8669   0.0000   0.2831
   6.900   0.8830   0.01815   0.01129  -0.0343  0.4119  1.0000  -2.9185   0.0000   0.2812
   7.000   0.8850   0.01855   0.01150  -0.0328  0.3827  1.0000  -2.9681   0.0000   0.2792
   7.100   0.8866   0.01898   0.01176  -0.0313  0.3529  1.0000  -3.0162   0.0000   0.2773
   7.200   0.8881   0.01946   0.01204  -0.0298  0.3242  1.0000  -3.0632   0.0000   0.2755
   7.300   0.8895   0.01997   0.01236  -0.0283  0.2965  1.0000  -3.1091   0.0000   0.2736
   7.400   0.8911   0.02050   0.01271  -0.0269  0.2698  1.0000  -3.1547   0.0000   0.2719
   7.500   0.8926   0.02107   0.01310  -0.0256  0.2453  1.0000  -3.1991   0.0000   0.2702
   7.600   0.8939   0.02165   0.01349  -0.0242  0.2232  1.0000  -3.2419   0.0000   0.2685
   7.700   0.8957   0.02225   0.01393  -0.0229  0.2021  1.0000  -3.2844   0.0000   0.2668
   7.800   0.8977   0.02287   0.01439  -0.0216  0.1832  1.0000  -3.3263   0.0000   0.2653
   7.900   0.9000   0.02352   0.01489  -0.0205  0.1663  1.0000  -3.3689   0.0000   0.2638
   8.000   0.9025   0.02419   0.01540  -0.0193  0.1519  1.0000  -3.4167   0.0000   0.2623
   8.100   0.9060   0.02485   0.01596  -0.0183  0.1378  1.0000  -3.4645   0.0000   0.2610
   8.200   0.9098   0.02553   0.01651  -0.0174  0.1267  1.0000  -3.5140   0.0000   0.2598
   8.300   0.9146   0.02619   0.01711  -0.0166  0.1164  1.0000  -3.5638   0.0000   0.2587
   8.400   0.9199   0.02684   0.01768  -0.0158  0.1079  1.0000  -3.6170   0.0000   0.2577
   8.500   0.9260   0.02750   0.01827  -0.0152  0.1006  1.0000  -3.6724   0.0000   0.2568
   8.600   0.9331   0.02817   0.01889  -0.0147  0.0942  1.0000  -3.7301   0.0000   0.2560
   8.700   0.9410   0.02884   0.01953  -0.0144  0.0886  1.0000  -3.7911   0.0000   0.2554
   8.800   0.9500   0.02955   0.02015  -0.0142  0.0839  1.0000  -3.8587   0.0000   0.2549
   8.900   0.9605   0.03027   0.02084  -0.0142  0.0796  1.0000  -3.9267   0.0000   0.2546
   9.000   0.9720   0.03106   0.02165  -0.0143  0.0756  1.0000  -3.9920   0.0000   0.2544
   9.100   0.9848   0.03187   0.02235  -0.0148  0.0721  1.0000  -4.0770   0.0000   0.2546
   9.200   0.9944   0.03256   0.02316  -0.0145  0.0689  1.0000  -4.1349   0.0000   0.2542
   9.300   1.0100   0.03354   0.02404  -0.0154  0.0661  1.0000  -4.2247   0.0000   0.2547
   9.400   1.0224   0.03449   0.02515  -0.0156  0.0640  1.0000  -4.2792   0.0000   0.2546
   9.500   1.0363   0.03541   0.02605  -0.0161  0.0620  1.0000  -4.3742   0.0000   0.2548
   9.600   1.0488   0.03647   0.02716  -0.0164  0.0602  1.0000  -4.4543   0.0000   0.2548
   9.700   1.0568   0.03735   0.02822  -0.0159  0.0585  1.0000  -4.5086   0.0000   0.2541
   9.800   1.0675   0.03817   0.02904  -0.0161  0.0567  1.0000  -4.5964   0.0000   0.2540
   9.900   1.0804   0.03931   0.03014  -0.0166  0.0553  1.0000  -4.6894   0.0000   0.2541
  10.000   1.0869   0.04042   0.03151  -0.0159  0.0545  1.0000  -4.7211   0.0000   0.2533
  10.100   1.0940   0.04163   0.03292  -0.0153  0.0539  1.0000  -4.7570   0.0000   0.2525
  10.200   1.1007   0.04287   0.03434  -0.0147  0.0533  1.0000  -4.7926   0.0000   0.2518
  10.300   1.1068   0.04413   0.03576  -0.0140  0.0529  1.0000  -4.8269   0.0000   0.2510
  10.400   1.1121   0.04533   0.03712  -0.0133  0.0524  1.0000  -4.8632   0.0000   0.2502
  10.500   1.1178   0.04646   0.03835  -0.0128  0.0517  1.0000  -4.9102   0.0000   0.2496
  10.600   1.1359   0.04776   0.03942  -0.0143  0.0504  1.0000  -5.0540   0.0000   0.2506
  10.700   1.1338   0.04890   0.04083  -0.0126  0.0501  1.0000  -5.0478   0.0000   0.2490
  10.800   1.1317   0.05009   0.04227  -0.0110  0.0499  1.0000  -5.0424   0.0000   0.2475
  10.900   1.1295   0.05133   0.04373  -0.0094  0.0496  1.0000  -5.0377   0.0000   0.2460
  11.000   1.1272   0.05261   0.04521  -0.0079  0.0494  1.0000  -5.0333   0.0000   0.2446
  11.100   1.1246   0.05392   0.04670  -0.0064  0.0493  1.0000  -5.0286   0.0000   0.2431
  11.200   1.1216   0.05524   0.04819  -0.0049  0.0492  1.0000  -5.0228   0.0000   0.2417
  11.300   1.1179   0.05654   0.04965  -0.0034  0.0492  1.0000  -5.0154   0.0000   0.2403
  11.400   1.1141   0.05790   0.05114  -0.0019  0.0492  1.0000  -5.0073   0.0000   0.2388
  11.500   1.1102   0.05929   0.05266  -0.0005  0.0494  1.0000  -4.9988   0.0000   0.2374
  11.600   1.1060   0.06070   0.05419   0.0008  0.0495  1.0000  -4.9901   0.0000   0.2361
  11.700   1.1017   0.06213   0.05573   0.0021  0.0496  1.0000  -4.9815   0.0000   0.2348
  11.800   1.0973   0.06358   0.05729   0.0032  0.0498  1.0000  -4.9737   0.0000   0.2336
  11.900   1.0932   0.06506   0.05886   0.0043  0.0499  1.0000  -4.9673   0.0000   0.2325
  12.000   1.0895   0.06658   0.06047   0.0052  0.0501  1.0000  -4.9634   0.0000   0.2315
  12.100   1.0867   0.06815   0.06211   0.0060  0.0502  1.0000  -4.9636   0.0000   0.2306
  12.200   1.0859   0.06982   0.06383   0.0066  0.0504  1.0000  -4.9720   0.0000   0.2300
  12.300   1.0479   0.07154   0.06593   0.0094  0.0514  1.0000  -4.7735   0.0000   0.2268
  12.400   1.0278   0.07381   0.06838   0.0104  0.0520  1.0000  -4.6713   0.0000   0.2255
  12.500   1.0134   0.07600   0.07070   0.0108  0.0525  1.0000  -4.6037   0.0000   0.2248
  12.600   1.0008   0.07819   0.07300   0.0109  0.0529  1.0000  -4.5476   0.0000   0.2243
  12.700   0.9888   0.08043   0.07533   0.0108  0.0532  1.0000  -4.4961   0.0000   0.2241
  12.800   0.9775   0.08274   0.07771   0.0105  0.0536  1.0000  -4.4475   0.0000   0.2242
  12.900   0.9667   0.08511   0.08015   0.0100  0.0539  1.0000  -4.4015   0.0000   0.2244
  13.000   0.9567   0.08753   0.08263   0.0093  0.0542  1.0000  -4.3581   0.0000   0.2248
  13.100   0.9475   0.08998   0.08514   0.0085  0.0545  1.0000  -4.3180   0.0000   0.2254
  13.200   0.9395   0.09244   0.08764   0.0076  0.0548  1.0000  -4.2833   0.0000   0.2261
  13.300   0.9336   0.09480   0.09003   0.0068  0.0550  1.0000  -4.2587   0.0000   0.2268
  13.400   0.9317   0.09685   0.09210   0.0063  0.0553  1.0000  -4.2558   0.0000   0.2271
  13.500   0.8653   0.10988   0.10534  -0.0040  0.0599  1.0000  -3.7196   0.0000   0.2384
  13.600   0.8607   0.11280   0.10827  -0.0054  0.0604  1.0000  -3.6822   0.0000   0.2399
  13.700   0.8584   0.11528   0.11075  -0.0064  0.0607  1.0000  -3.6632   0.0000   0.2410
  13.800   0.8582   0.11736   0.11283  -0.0070  0.0609  1.0000  -3.6609   0.0000   0.2416
  18.700   0.5401   0.18202   0.17772  -0.0333  0.0808  1.0000  -1.2241   0.0000   0.2979
  18.800   0.5437   0.18327   0.17899  -0.0335  0.0797  1.0000  -1.2446   0.0000   0.2977
  18.900   0.5535   0.18559   0.18131  -0.0328  0.0786  1.0000  -1.3139   0.0000   0.2952
  19.000   0.5491   0.18613   0.18184  -0.0342  0.0783  1.0000  -1.2632   0.0000   0.2981
  19.100   0.5468   0.18699   0.18270  -0.0354  0.0774  1.0000  -1.2267   0.0000   0.3005
  19.200   0.5472   0.18808   0.18379  -0.0361  0.0760  1.0000  -1.2154   0.0000   0.3017
  19.300   0.5493   0.18922   0.18494  -0.0366  0.0746  1.0000  -1.2210   0.0000   0.3022
  19.400   0.5533   0.19051   0.18624  -0.0367  0.0733  1.0000  -1.2470   0.0000   0.3018
  19.500   0.5604   0.19256   0.18829  -0.0364  0.0725  1.0000  -1.2955   0.0000   0.3002
  19.600   0.5571   0.19323   0.18896  -0.0377  0.0721  1.0000  -1.2489   0.0000   0.3029
  19.700   0.5558   0.19420   0.18993  -0.0387  0.0712  1.0000  -1.2183   0.0000   0.3048
  19.800   0.5566   0.19533   0.19106  -0.0394  0.0700  1.0000  -1.2085   0.0000   0.3059
  19.900   0.5584   0.19651   0.19225  -0.0399  0.0689  1.0000  -1.2094   0.0000   0.3065
  20.000   0.5609   0.19773   0.19347  -0.0403  0.0680  1.0000  -1.2190   0.0000   0.3067


