xflr5 v6.32

 Calculated polar for: foil1 modified

 1 1 Reynolds number fixed          Mach number fixed         

 xtrf =   1.000 (top)        1.000 (bottom)
 Mach =   0.000     Re =     3.500 e 6     Ncrit =   9.000

  alpha     CL        CD       CDp       Cm    Top Xtr Bot Xtr   Cpmin    Chinge    XCp    
 ------- -------- --------- --------- -------- ------- ------- -------- --------- ---------
 -15.000  -0.9936   0.03411   0.03143  -0.0992  0.9276  0.0065  -13.0384   0.0000   0.1298
 -14.900  -0.9947   0.03306   0.03032  -0.0993  0.9252  0.0065  -13.0084   0.0000   0.1301
 -14.800  -0.9954   0.03207   0.02928  -0.0993  0.9228  0.0065  -12.9727   0.0000   0.1304
 -14.700  -0.9955   0.03115   0.02831  -0.0993  0.9206  0.0065  -12.9304   0.0000   0.1307
 -14.600  -0.9951   0.03028   0.02738  -0.0993  0.9187  0.0065  -12.8825   0.0000   0.1309
 -14.500  -0.9943   0.02945   0.02650  -0.0992  0.9166  0.0065  -12.8304   0.0000   0.1311
 -14.400  -0.9929   0.02867   0.02568  -0.0992  0.9148  0.0065  -12.7725   0.0000   0.1312
 -14.300  -0.9914   0.02793   0.02489  -0.0991  0.9130  0.0065  -12.7118   0.0000   0.1314
 -14.200  -0.9892   0.02722   0.02414  -0.0990  0.9113  0.0066  -12.6451   0.0000   0.1314
 -14.100  -0.9867   0.02654   0.02342  -0.0989  0.9094  0.0066  -12.5756   0.0000   0.1315
 -14.000  -0.9838   0.02590   0.02273  -0.0988  0.9077  0.0066  -12.5021   0.0000   0.1315
 -13.900  -0.9807   0.02529   0.02208  -0.0987  0.9061  0.0066  -12.4262   0.0000   0.1315
 -13.800  -0.9771   0.02470   0.02145  -0.0986  0.9046  0.0066  -12.3455   0.0000   0.1314
 -13.700  -0.9732   0.02413   0.02084  -0.0985  0.9030  0.0066  -12.2625   0.0000   0.1313
 -13.600  -0.9690   0.02359   0.02026  -0.0984  0.9015  0.0066  -12.1762   0.0000   0.1311
 -13.500  -0.9645   0.02307   0.01970  -0.0983  0.9000  0.0066  -12.0880   0.0000   0.1310
 -13.400  -0.9598   0.02258   0.01916  -0.0982  0.8987  0.0066  -11.9969   0.0000   0.1307
 -13.300  -0.9546   0.02209   0.01864  -0.0981  0.8974  0.0066  -11.9025   0.0000   0.1304
 -13.200  -0.9492   0.02161   0.01814  -0.0981  0.8960  0.0066  -11.8061   0.0000   0.1300
 -13.100  -0.9434   0.02116   0.01765  -0.0980  0.8947  0.0067  -11.7073   0.0000   0.1296
 -13.000  -0.9376   0.02072   0.01718  -0.0980  0.8933  0.0067  -11.6074   0.0000   0.1291
 -12.900  -0.9318   0.02032   0.01674  -0.0979  0.8920  0.0067  -11.5079   0.0000   0.1287
 -12.800  -0.9256   0.01993   0.01631  -0.0980  0.8908  0.0067  -11.4056   0.0000   0.1281
 -12.700  -0.9178   0.01952   0.01588  -0.0982  0.8897  0.0067  -11.2927   0.0000   0.1271
 -12.600  -0.9097   0.01912   0.01545  -0.0985  0.8885  0.0067  -11.1776   0.0000   0.1259
 -12.500  -0.9014   0.01874   0.01504  -0.0988  0.8873  0.0068  -11.0605   0.0000   0.1247
 -12.400  -0.8927   0.01837   0.01464  -0.0992  0.8862  0.0068  -10.9417   0.0000   0.1234
 -12.300  -0.8839   0.01802   0.01425  -0.0995  0.8851  0.0068  -10.8216   0.0000   0.1221
 -12.200  -0.8749   0.01768   0.01388  -0.0998  0.8841  0.0068  -10.7004   0.0000   0.1207
 -12.100  -0.8657   0.01736   0.01353  -0.1001  0.8832  0.0068  -10.5780   0.0000   0.1192
 -12.000  -0.8563   0.01704   0.01319  -0.1004  0.8823  0.0069  -10.4546   0.0000   0.1177
 -11.900  -0.8469   0.01675   0.01287  -0.1007  0.8813  0.0069  -10.3310   0.0000   0.1162
 -11.800  -0.8374   0.01647   0.01257  -0.1009  0.8804  0.0069  -10.2073   0.0000   0.1148
 -11.700  -0.8279   0.01620   0.01227  -0.1010  0.8794  0.0069  -10.0836   0.0000   0.1133
 -11.600  -0.8183   0.01594   0.01199  -0.1012  0.8785  0.0070  -9.9596   0.0000   0.1117
 -11.500  -0.8087   0.01569   0.01171  -0.1014  0.8776  0.0070  -9.8356   0.0000   0.1102
 -11.400  -0.7989   0.01545   0.01144  -0.1015  0.8767  0.0070  -9.7114   0.0000   0.1085
 -11.300  -0.7891   0.01521   0.01119  -0.1017  0.8759  0.0071  -9.5870   0.0000   0.1068
 -11.200  -0.7791   0.01498   0.01093  -0.1019  0.8751  0.0071  -9.4620   0.0000   0.1050
 -11.100  -0.7690   0.01475   0.01069  -0.1021  0.8742  0.0071  -9.3369   0.0000   0.1032
 -11.000  -0.7589   0.01453   0.01045  -0.1023  0.8734  0.0072  -9.2117   0.0000   0.1012
 -10.900  -0.7486   0.01432   0.01022  -0.1024  0.8725  0.0072  -9.0864   0.0000   0.0992
 -10.800  -0.7384   0.01411   0.01000  -0.1026  0.8716  0.0073  -8.9612   0.0000   0.0972
 -10.700  -0.7280   0.01391   0.00978  -0.1028  0.8707  0.0073  -8.8361   0.0000   0.0951
 -10.600  -0.7177   0.01372   0.00957  -0.1030  0.8698  0.0074  -8.7110   0.0000   0.0929
 -10.500  -0.7073   0.01354   0.00936  -0.1031  0.8689  0.0074  -8.5858   0.0000   0.0906
 -10.400  -0.6968   0.01336   0.00916  -0.1033  0.8680  0.0074  -8.4605   0.0000   0.0882
 -10.300  -0.6862   0.01318   0.00897  -0.1035  0.8672  0.0075  -8.3348   0.0000   0.0857
 -10.200  -0.6756   0.01301   0.00878  -0.1037  0.8664  0.0075  -8.2089   0.0000   0.0831
 -10.100  -0.6649   0.01284   0.00860  -0.1039  0.8656  0.0076  -8.0829   0.0000   0.0804
 -10.000  -0.6541   0.01267   0.00842  -0.1041  0.8647  0.0076  -7.9570   0.0000   0.0776
  -9.900  -0.6433   0.01251   0.00825  -0.1043  0.8639  0.0076  -7.8313   0.0000   0.0747
  -9.800  -0.6325   0.01236   0.00809  -0.1045  0.8631  0.0077  -7.7057   0.0000   0.0717
  -9.700  -0.6217   0.01222   0.00793  -0.1046  0.8622  0.0077  -7.5803   0.0000   0.0685
  -9.600  -0.6108   0.01207   0.00777  -0.1048  0.8614  0.0077  -7.4551   0.0000   0.0653
  -9.500  -0.5999   0.01194   0.00762  -0.1050  0.8606  0.0077  -7.3304   0.0000   0.0619
  -9.400  -0.5890   0.01181   0.00747  -0.1052  0.8597  0.0078  -7.2059   0.0000   0.0584
  -9.300  -0.5780   0.01167   0.00733  -0.1054  0.8590  0.0078  -7.0814   0.0000   0.0547
  -9.200  -0.5669   0.01154   0.00719  -0.1056  0.8581  0.0078  -6.9573   0.0000   0.0508
  -9.100  -0.5558   0.01141   0.00706  -0.1058  0.8573  0.0078  -6.8337   0.0000   0.0467
  -9.000  -0.5447   0.01129   0.00693  -0.1060  0.8564  0.0079  -6.7107   0.0000   0.0425
  -8.900  -0.5336   0.01117   0.00680  -0.1062  0.8556  0.0079  -6.5884   0.0000   0.0381
  -8.800  -0.5225   0.01105   0.00667  -0.1064  0.8547  0.0079  -6.4668   0.0000   0.0335
  -8.700  -0.5113   0.01093   0.00654  -0.1066  0.8538  0.0079  -6.3460   0.0000   0.0286
  -8.600  -0.5002   0.01082   0.00642  -0.1068  0.8529  0.0079  -6.2260   0.0000   0.0236
  -8.500  -0.4890   0.01071   0.00630  -0.1070  0.8520  0.0079  -6.1068   0.0000   0.0184
  -8.400  -0.4779   0.01061   0.00618  -0.1072  0.8511  0.0079  -5.9883   0.0000   0.0128
  -8.300  -0.4673   0.01027   0.00581  -0.1074  0.8502  0.0080  -5.9014   0.0000   0.0072
  -8.200  -0.4565   0.01000   0.00551  -0.1077  0.8493  0.0081  -5.8060   0.0000   0.0012
  -8.100  -0.4454   0.00978   0.00527  -0.1079  0.8484  0.0081  -5.7051   0.0000  -0.0052
  -8.000  -0.4343   0.00959   0.00507  -0.1081  0.8475  0.0082  -5.6013   0.0000  -0.0120
  -7.900  -0.4231   0.00943   0.00488  -0.1083  0.8466  0.0083  -5.4959   0.0000  -0.0191
  -7.800  -0.4119   0.00927   0.00471  -0.1086  0.8457  0.0083  -5.3896   0.0000  -0.0267
  -7.700  -0.4006   0.00913   0.00456  -0.1088  0.8448  0.0084  -5.2827   0.0000  -0.0347
  -7.600  -0.3893   0.00900   0.00441  -0.1090  0.8439  0.0084  -5.1757   0.0000  -0.0433
  -7.500  -0.3780   0.00889   0.00428  -0.1092  0.8430  0.0085  -5.0686   0.0000  -0.0523
  -7.400  -0.3665   0.00877   0.00415  -0.1094  0.8422  0.0086  -4.9611   0.0000  -0.0621
  -7.300  -0.3550   0.00865   0.00403  -0.1097  0.8413  0.0086  -4.8537   0.0000  -0.0725
  -7.200  -0.3435   0.00854   0.00392  -0.1099  0.8404  0.0087  -4.7467   0.0000  -0.0837
  -7.100  -0.3320   0.00844   0.00381  -0.1101  0.8395  0.0087  -4.6402   0.0000  -0.0956
  -7.000  -0.3204   0.00834   0.00371  -0.1104  0.8385  0.0088  -4.5342   0.0000  -0.1084
  -6.900  -0.3089   0.00824   0.00361  -0.1106  0.8376  0.0089  -4.4289   0.0000  -0.1222
  -6.800  -0.2974   0.00816   0.00351  -0.1108  0.8366  0.0089  -4.3242   0.0000  -0.1370
  -6.700  -0.2859   0.00807   0.00342  -0.1110  0.8357  0.0090  -4.2204   0.0000  -0.1530
  -6.600  -0.2743   0.00799   0.00333  -0.1112  0.8348  0.0091  -4.1174   0.0000  -0.1703
  -6.500  -0.2628   0.00791   0.00324  -0.1114  0.8339  0.0091  -4.0150   0.0000  -0.1892
  -6.400  -0.2511   0.00782   0.00315  -0.1117  0.8330  0.0092  -3.9132   0.0000  -0.2102
  -6.300  -0.2394   0.00774   0.00307  -0.1119  0.8320  0.0093  -3.8122   0.0000  -0.2332
  -6.200  -0.2278   0.00766   0.00299  -0.1121  0.8310  0.0094  -3.7123   0.0000  -0.2586
  -6.100  -0.2161   0.00759   0.00291  -0.1123  0.8299  0.0095  -3.6135   0.0000  -0.2866
  -6.000  -0.2045   0.00752   0.00284  -0.1126  0.8289  0.0096  -3.5157   0.0000  -0.3178
  -5.900  -0.1928   0.00745   0.00276  -0.1128  0.8279  0.0097  -3.4189   0.0000  -0.3526
  -5.800  -0.1812   0.00738   0.00269  -0.1130  0.8268  0.0098  -3.3232   0.0000  -0.3919
  -5.700  -0.1696   0.00732   0.00262  -0.1132  0.8258  0.0100  -3.2284   0.0000  -0.4365
  -5.600  -0.1579   0.00726   0.00256  -0.1134  0.8249  0.0101  -3.1339   0.0000  -0.4883
  -5.500  -0.1462   0.00720   0.00250  -0.1136  0.8239  0.0102  -3.0398   0.0000  -0.5487
  -5.400  -0.1344   0.00714   0.00244  -0.1139  0.8229  0.0103  -2.9464   0.0000  -0.6196
  -5.300  -0.1227   0.00708   0.00238  -0.1141  0.8218  0.0103  -2.8536   0.0000  -0.7039
  -5.200  -0.1110   0.00700   0.00229  -0.1143  0.8207  0.0107  -2.7680   0.0000  -0.8060
  -5.100  -0.0993   0.00692   0.00221  -0.1145  0.8196  0.0112  -2.6822   0.0000  -0.9319
  -5.000  -0.0876   0.00686   0.00215  -0.1147  0.8185  0.0117  -2.5938   0.0000  -1.0907
  -4.900  -0.0760   0.00681   0.00209  -0.1149  0.8173  0.0121  -2.5054   0.0000  -1.2977
  -4.800  -0.0643   0.00676   0.00204  -0.1152  0.8162  0.0125  -2.4268   0.0000  -1.5815
  -4.700  -0.0525   0.00670   0.00200  -0.1154  0.8151  0.0128  -2.3499   0.0000  -1.9967
  -4.600  -0.0407   0.00665   0.00195  -0.1156  0.8140  0.0131  -2.2736   0.0000  -2.6518
  -4.500  -0.0289   0.00658   0.00189  -0.1158  0.8128  0.0142  -2.2030   0.0000  -3.8415
  -4.400  -0.0171   0.00652   0.00183  -0.1161  0.8117  0.0153  -2.1291   0.0000  -6.6559
  -4.300  -0.0054   0.00648   0.00179  -0.1163  0.8105  0.0162  -2.0553   0.0000  -21.6316
  -4.200   0.0063   0.00642   0.00174  -0.1165  0.8094  0.0183  -1.9832   0.0000  19.1243
  -4.100   0.0179   0.00637   0.00169  -0.1167  0.8082  0.0200  -1.9105   0.0000   6.8680
  -4.000   0.0297   0.00631   0.00165  -0.1169  0.8070  0.0224  -1.8379   0.0000   4.2542
  -3.900   0.0415   0.00625   0.00160  -0.1171  0.8058  0.0251  -1.7656   0.0000   3.1171
  -3.800   0.0534   0.00620   0.00156  -0.1174  0.8045  0.0283  -1.6940   0.0000   2.4854
  -3.700   0.0651   0.00614   0.00152  -0.1176  0.8031  0.0322  -1.6231   0.0000   2.0839
  -3.600   0.0769   0.00608   0.00148  -0.1178  0.8017  0.0366  -1.5532   0.0000   1.8059
  -3.500   0.0886   0.00603   0.00144  -0.1180  0.8002  0.0418  -1.4842   0.0000   1.6021
  -3.400   0.1002   0.00596   0.00140  -0.1183  0.7988  0.0487  -1.4161   0.0000   1.4463
  -3.300   0.1120   0.00590   0.00136  -0.1185  0.7975  0.0569  -1.3485   0.0000   1.3218
  -3.200   0.1239   0.00582   0.00132  -0.1188  0.7961  0.0658  -1.2816   0.0000   1.2208
  -3.100   0.1357   0.00574   0.00128  -0.1190  0.7947  0.0776  -1.2157   0.0000   1.1377
  -3.000   0.1475   0.00566   0.00124  -0.1193  0.7932  0.0904  -1.1509   0.0000   1.0680
  -2.900   0.1593   0.00557   0.00120  -0.1195  0.7917  0.1067  -1.0871   0.0000   1.0089
  -2.800   0.1710   0.00548   0.00116  -0.1198  0.7903  0.1244  -1.0242   0.0000   0.9580
  -2.700   0.1828   0.00537   0.00111  -0.1201  0.7888  0.1475  -0.9622   0.0000   0.9137
  -2.600   0.1948   0.00523   0.00106  -0.1205  0.7874  0.1796  -0.9008   0.0000   0.8744
  -2.500   0.2067   0.00505   0.00101  -0.1209  0.7857  0.2185  -0.8404   0.0000   0.8399
  -2.400   0.2187   0.00485   0.00095  -0.1213  0.7840  0.2661  -0.7811   0.0000   0.8094
  -2.300   0.2306   0.00465   0.00088  -0.1217  0.7822  0.3150  -0.7227   0.0000   0.7821
  -2.200   0.2424   0.00447   0.00083  -0.1221  0.7805  0.3605  -0.6651   0.0000   0.7575
  -2.100   0.2543   0.00427   0.00077  -0.1225  0.7788  0.4110  -0.6083   0.0000   0.7351
  -2.000   0.2663   0.00406   0.00071  -0.1229  0.7770  0.4629  -0.5523   0.0000   0.7147
  -1.900   0.2781   0.00389   0.00066  -0.1233  0.7750  0.5066  -0.5485   0.0000   0.6959
  -1.800   0.2899   0.00376   0.00062  -0.1236  0.7729  0.5445  -0.5536   0.0000   0.6786
  -1.700   0.3015   0.00368   0.00060  -0.1238  0.7709  0.5696  -0.5586   0.0000   0.6626
  -1.600   0.3133   0.00362   0.00059  -0.1240  0.7690  0.5875  -0.5637   0.0000   0.6476
  -1.500   0.3251   0.00358   0.00058  -0.1242  0.7669  0.6018  -0.5693   0.0000   0.6336
  -1.400   0.3368   0.00356   0.00057  -0.1244  0.7646  0.6130  -0.5748   0.0000   0.6206
  -1.300   0.3485   0.00354   0.00057  -0.1246  0.7623  0.6226  -0.5804   0.0000   0.6085
  -1.200   0.3601   0.00354   0.00057  -0.1247  0.7601  0.6300  -0.5859   0.0000   0.5971
  -1.100   0.3719   0.00353   0.00058  -0.1249  0.7577  0.6355  -0.5915   0.0000   0.5865
  -1.000   0.3836   0.00354   0.00058  -0.1250  0.7549  0.6400  -0.5971   0.0000   0.5764
  -0.900   0.3951   0.00355   0.00058  -0.1252  0.7521  0.6444  -0.6029   0.0000   0.5670
  -0.800   0.4068   0.00355   0.00059  -0.1253  0.7495  0.6502  -0.6089   0.0000   0.5581
  -0.700   0.4185   0.00355   0.00060  -0.1255  0.7466  0.6557  -0.6149   0.0000   0.5497
  -0.600   0.4300   0.00357   0.00061  -0.1256  0.7435  0.6608  -0.6209   0.0000   0.5418
  -0.400   0.4533   0.00360   0.00063  -0.1259  0.7377  0.6671  -0.6328   0.0000   0.5271
  -0.300   0.4648   0.00361   0.00064  -0.1260  0.7342  0.6694  -0.6388   0.0000   0.5203
  -0.200   0.4763   0.00364   0.00065  -0.1261  0.7307  0.6716  -0.6447   0.0000   0.5139
  -0.100   0.4879   0.00366   0.00066  -0.1262  0.7270  0.6735  -0.6507   0.0000   0.5077
   0.000   0.4994   0.00369   0.00067  -0.1263  0.7229  0.6749  -0.6573   0.0000   0.5019
   0.100   0.5109   0.00371   0.00068  -0.1264  0.7192  0.6763  -0.6639   0.0000   0.4963
   0.200   0.5224   0.00373   0.00069  -0.1266  0.7151  0.6777  -0.6710   0.0000   0.4909
   0.300   0.5338   0.00375   0.00070  -0.1266  0.7112  0.6788  -0.6780   0.0000   0.4858
   0.400   0.5454   0.00377   0.00072  -0.1268  0.7080  0.6798  -0.6856   0.0000   0.4809
   0.500   0.5570   0.00379   0.00073  -0.1269  0.7047  0.6808  -0.6931   0.0000   0.4762
   0.600   0.5684   0.00382   0.00074  -0.1270  0.7015  0.6817  -0.7007   0.0000   0.4717
   0.700   0.5800   0.00384   0.00076  -0.1271  0.6984  0.6826  -0.7089   0.0000   0.4673
   0.800   0.5915   0.00386   0.00077  -0.1273  0.6946  0.6835  -0.7173   0.0000   0.4632
   0.900   0.6029   0.00390   0.00079  -0.1273  0.6904  0.6844  -0.7263   0.0000   0.4591
   1.000   0.6144   0.00393   0.00080  -0.1275  0.6859  0.6852  -0.7354   0.0000   0.4553
   1.100   0.6256   0.00397   0.00082  -0.1275  0.6801  0.6859  -0.7444   0.0000   0.4515
   1.300   0.6479   0.00406   0.00086  -0.1276  0.6668  0.6876  -0.7639   0.0000   0.4445
   1.400   0.6588   0.00411   0.00089  -0.1276  0.6579  0.6884  -0.7738   0.0000   0.4411
   1.500   0.6696   0.00418   0.00092  -0.1276  0.6479  0.6892  -0.7837   0.0000   0.4379
   1.600   0.6803   0.00425   0.00095  -0.1276  0.6371  0.6899  -0.7948   0.0000   0.4347
   1.800   0.7016   0.00441   0.00102  -0.1275  0.6143  0.6913  -0.8170   0.0000   0.4287
   1.900   0.7122   0.00449   0.00106  -0.1274  0.6033  0.6920  -0.8281   0.0000   0.4258
   2.100   0.7337   0.00464   0.00114  -0.1274  0.5825  0.6933  -0.8511   0.0000   0.4203
   2.200   0.7442   0.00473   0.00118  -0.1273  0.5710  0.6940  -0.8637   0.0000   0.4177
   2.300   0.7546   0.00483   0.00123  -0.1273  0.5586  0.6947  -0.8769   0.0000   0.4151
   2.400   0.7650   0.00493   0.00128  -0.1272  0.5447  0.6953  -0.8958   0.0000   0.4126
   2.500   0.7752   0.00505   0.00133  -0.1271  0.5298  0.6959  -0.9146   0.0000   0.4102
   2.600   0.7853   0.00517   0.00139  -0.1269  0.5153  0.6964  -0.9362   0.0000   0.4078
   2.700   0.7955   0.00529   0.00144  -0.1268  0.5011  0.6969  -0.9593   0.0000   0.4055
   2.800   0.8055   0.00541   0.00150  -0.1267  0.4851  0.6973  -0.9846   0.0000   0.4033
   2.900   0.8152   0.00556   0.00157  -0.1265  0.4669  0.6978  -1.0095   0.0000   0.4011
   3.000   0.8248   0.00571   0.00165  -0.1263  0.4481  0.6986  -1.0367   0.0000   0.3989
   3.100   0.8346   0.00584   0.00172  -0.1261  0.4314  0.6994  -1.0686   0.0000   0.3968
   3.200   0.8444   0.00598   0.00179  -0.1259  0.4147  0.7000  -1.1008   0.0000   0.3947
   3.300   0.8539   0.00613   0.00187  -0.1257  0.3966  0.7006  -1.1328   0.0000   0.3927
   3.400   0.8631   0.00632   0.00196  -0.1254  0.3747  0.7012  -1.1680   0.0000   0.3907
   3.500   0.8720   0.00652   0.00206  -0.1251  0.3516  0.7018  -1.2067   0.0000   0.3888
   3.600   0.8813   0.00670   0.00215  -0.1248  0.3326  0.7023  -1.2464   0.0000   0.3869
   3.700   0.8912   0.00683   0.00223  -0.1247  0.3189  0.7028  -1.2876   0.0000   0.3850
   3.800   0.9010   0.00696   0.00231  -0.1245  0.3051  0.7033  -1.3290   0.0000   0.3832
   3.900   0.9106   0.00711   0.00239  -0.1243  0.2902  0.7038  -1.3704   0.0000   0.3814
   4.000   0.9201   0.00727   0.00248  -0.1241  0.2741  0.7043  -1.4118   0.0000   0.3797
   4.100   0.9298   0.00742   0.00257  -0.1239  0.2603  0.7048  -1.4539   0.0000   0.3780
   4.200   0.9396   0.00755   0.00265  -0.1237  0.2477  0.7053  -1.4997   0.0000   0.3763
   4.300   0.9490   0.00771   0.00274  -0.1235  0.2334  0.7058  -1.5536   0.0000   0.3747
   4.400   0.9585   0.00787   0.00283  -0.1233  0.2191  0.7062  -1.6081   0.0000   0.3730
   4.500   0.9677   0.00805   0.00293  -0.1230  0.2033  0.7067  -1.6622   0.0000   0.3714
   4.600   0.9769   0.00822   0.00304  -0.1228  0.1878  0.7071  -1.7170   0.0000   0.3699
   4.700   0.9862   0.00839   0.00314  -0.1225  0.1737  0.7075  -1.7776   0.0000   0.3683
   4.800   0.9952   0.00857   0.00325  -0.1222  0.1588  0.7079  -1.8380   0.0000   0.3668
   4.900   1.0044   0.00875   0.00336  -0.1219  0.1449  0.7082  -1.8994   0.0000   0.3653
   5.000   1.0136   0.00892   0.00347  -0.1217  0.1320  0.7086  -1.9615   0.0000   0.3638
   5.100   1.0230   0.00908   0.00357  -0.1214  0.1216  0.7089  -2.0249   0.0000   0.3623
   5.200   1.0324   0.00922   0.00367  -0.1212  0.1121  0.7096  -2.0892   0.0000   0.3609
   5.300   1.0418   0.00937   0.00377  -0.1210  0.1023  0.7103  -2.1540   0.0000   0.3595
   5.400   1.0513   0.00951   0.00387  -0.1208  0.0939  0.7109  -2.2196   0.0000   0.3582
   5.500   1.0607   0.00965   0.00398  -0.1205  0.0862  0.7115  -2.2858   0.0000   0.3568
   5.600   1.0702   0.00979   0.00408  -0.1203  0.0791  0.7120  -2.3528   0.0000   0.3555
   5.700   1.0798   0.00992   0.00418  -0.1201  0.0728  0.7124  -2.4208   0.0000   0.3542
   5.800   1.0894   0.01004   0.00428  -0.1199  0.0678  0.7129  -2.4897   0.0000   0.3529
   5.900   1.0992   0.01016   0.00437  -0.1197  0.0632  0.7133  -2.5597   0.0000   0.3517
   6.000   1.1089   0.01028   0.00447  -0.1195  0.0588  0.7136  -2.6300   0.0000   0.3504
   6.100   1.1185   0.01040   0.00457  -0.1194  0.0548  0.7140  -2.7007   0.0000   0.3492
   6.200   1.1280   0.01052   0.00467  -0.1191  0.0508  0.7144  -2.7739   0.0000   0.3480
   6.300   1.1377   0.01064   0.00476  -0.1189  0.0475  0.7148  -2.8525   0.0000   0.3468
   6.400   1.1473   0.01075   0.00486  -0.1187  0.0443  0.7152  -2.9315   0.0000   0.3457
   6.500   1.1567   0.01088   0.00497  -0.1185  0.0411  0.7156  -3.0105   0.0000   0.3445
   6.600   1.1663   0.01099   0.00507  -0.1183  0.0386  0.7160  -3.0913   0.0000   0.3434
   6.700   1.1758   0.01111   0.00517  -0.1181  0.0360  0.7164  -3.1719   0.0000   0.3422
   6.800   1.1852   0.01123   0.00528  -0.1179  0.0334  0.7168  -3.2532   0.0000   0.3411
   6.900   1.1946   0.01135   0.00538  -0.1176  0.0313  0.7172  -3.3354   0.0000   0.3400
   7.000   1.2038   0.01148   0.00550  -0.1174  0.0291  0.7176  -3.4175   0.0000   0.3389
   7.100   1.2133   0.01159   0.00560  -0.1172  0.0275  0.7179  -3.5014   0.0000   0.3378
   7.200   1.2226   0.01171   0.00571  -0.1169  0.0257  0.7183  -3.5851   0.0000   0.3368
   7.300   1.2319   0.01183   0.00582  -0.1166  0.0243  0.7186  -3.6697   0.0000   0.3357
   7.400   1.2412   0.01195   0.00592  -0.1164  0.0230  0.7189  -3.7551   0.0000   0.3347
   7.500   1.2502   0.01208   0.00604  -0.1161  0.0214  0.7192  -3.8398   0.0000   0.3336
   7.600   1.2595   0.01219   0.00615  -0.1158  0.0205  0.7195  -3.9268   0.0000   0.3326
   7.700   1.2686   0.01231   0.00626  -0.1156  0.0194  0.7198  -4.0133   0.0000   0.3316
   7.800   1.2772   0.01245   0.00639  -0.1152  0.0181  0.7200  -4.0986   0.0000   0.3306
   7.900   1.2858   0.01255   0.00649  -0.1148  0.0174  0.7202  -4.1847   0.0000   0.3295
   8.000   1.2941   0.01266   0.00660  -0.1143  0.0167  0.7208  -4.2697   0.0000   0.3285
   8.100   1.3020   0.01278   0.00672  -0.1138  0.0159  0.7213  -4.3538   0.0000   0.3274
   8.200   1.3101   0.01291   0.00685  -0.1134  0.0150  0.7219  -4.4392   0.0000   0.3264
   8.300   1.3188   0.01302   0.00696  -0.1130  0.0147  0.7224  -4.5282   0.0000   0.3254
   8.400   1.3273   0.01314   0.00709  -0.1126  0.0142  0.7229  -4.6169   0.0000   0.3244
   8.500   1.3356   0.01328   0.00722  -0.1122  0.0136  0.7233  -4.7052   0.0000   0.3234
   8.600   1.3437   0.01343   0.00737  -0.1117  0.0129  0.7238  -4.7928   0.0000   0.3225
   8.700   1.3519   0.01358   0.00752  -0.1113  0.0123  0.7242  -4.8805   0.0000   0.3215
   8.800   1.3604   0.01369   0.00764  -0.1109  0.0120  0.7246  -4.9719   0.0000   0.3205
   8.900   1.3687   0.01383   0.00778  -0.1105  0.0117  0.7250  -5.0627   0.0000   0.3196
   9.000   1.3767   0.01397   0.00792  -0.1101  0.0113  0.7254  -5.1600   0.0000   0.3187
   9.100   1.3846   0.01412   0.00807  -0.1096  0.0108  0.7257  -5.2572   0.0000   0.3177
   9.200   1.3923   0.01429   0.00823  -0.1091  0.0104  0.7261  -5.3538   0.0000   0.3168
   9.300   1.3998   0.01446   0.00842  -0.1085  0.0098  0.7264  -5.4483   0.0000   0.3158
   9.400   1.4079   0.01460   0.00856  -0.1081  0.0097  0.7268  -5.5491   0.0000   0.3149
   9.500   1.4158   0.01474   0.00871  -0.1077  0.0096  0.7271  -5.6499   0.0000   0.3140
   9.600   1.4237   0.01489   0.00886  -0.1072  0.0094  0.7274  -5.7507   0.0000   0.3132
   9.700   1.4314   0.01505   0.00903  -0.1067  0.0092  0.7278  -5.8516   0.0000   0.3123
   9.800   1.4390   0.01522   0.00919  -0.1062  0.0090  0.7281  -5.9526   0.0000   0.3114
   9.900   1.4465   0.01539   0.00937  -0.1057  0.0088  0.7284  -6.0537   0.0000   0.3105
  10.000   1.4538   0.01557   0.00955  -0.1052  0.0086  0.7287  -6.1546   0.0000   0.3096
  10.100   1.4611   0.01576   0.00974  -0.1046  0.0083  0.7290  -6.2546   0.0000   0.3087
  10.200   1.4681   0.01596   0.00995  -0.1041  0.0081  0.7293  -6.3531   0.0000   0.3078
  10.300   1.4749   0.01617   0.01017  -0.1035  0.0078  0.7296  -6.4498   0.0000   0.3069
  10.400   1.4818   0.01638   0.01039  -0.1029  0.0076  0.7299  -6.5484   0.0000   0.3061
  10.500   1.4893   0.01655   0.01057  -0.1024  0.0076  0.7302  -6.6537   0.0000   0.3052
  10.600   1.4967   0.01673   0.01075  -0.1019  0.0076  0.7305  -6.7593   0.0000   0.3044
  10.700   1.5040   0.01691   0.01094  -0.1014  0.0075  0.7307  -6.8650   0.0000   0.3036
  10.800   1.5113   0.01710   0.01114  -0.1009  0.0074  0.7310  -6.9708   0.0000   0.3028
  10.900   1.5185   0.01729   0.01134  -0.1004  0.0074  0.7312  -7.0768   0.0000   0.3020
  11.000   1.5256   0.01749   0.01155  -0.0999  0.0073  0.7314  -7.1850   0.0000   0.3012
  11.100   1.5326   0.01769   0.01176  -0.0993  0.0072  0.7316  -7.2984   0.0000   0.3003
  11.200   1.5396   0.01790   0.01197  -0.0988  0.0072  0.7321  -7.4125   0.0000   0.2995
  11.300   1.5465   0.01811   0.01219  -0.0983  0.0071  0.7326  -7.5268   0.0000   0.2988
  11.400   1.5533   0.01832   0.01242  -0.0978  0.0070  0.7331  -7.6414   0.0000   0.2980
  11.500   1.5601   0.01854   0.01265  -0.0972  0.0069  0.7336  -7.7562   0.0000   0.2972
  11.600   1.5667   0.01877   0.01289  -0.0967  0.0068  0.7340  -7.8709   0.0000   0.2964
  11.700   1.5733   0.01900   0.01313  -0.0961  0.0068  0.7344  -7.9859   0.0000   0.2956
  11.800   1.5797   0.01924   0.01338  -0.0955  0.0067  0.7347  -8.1011   0.0000   0.2948
  11.900   1.5861   0.01949   0.01364  -0.0950  0.0066  0.7351  -8.2161   0.0000   0.2941
  12.000   1.5923   0.01975   0.01390  -0.0944  0.0065  0.7354  -8.3311   0.0000   0.2933
  12.100   1.5984   0.02002   0.01419  -0.0938  0.0064  0.7357  -8.4451   0.0000   0.2925
  12.200   1.6043   0.02030   0.01448  -0.0931  0.0062  0.7361  -8.5576   0.0000   0.2917
  12.300   1.6099   0.02060   0.01480  -0.0925  0.0061  0.7364  -8.6684   0.0000   0.2909
  12.400   1.6152   0.02093   0.01514  -0.0918  0.0060  0.7367  -8.7766   0.0000   0.2901
  12.500   1.6202   0.02127   0.01551  -0.0910  0.0059  0.7371  -8.8822   0.0000   0.2893
  12.600   1.6248   0.02165   0.01591  -0.0902  0.0057  0.7374  -8.9845   0.0000   0.2885
  12.700   1.6305   0.02195   0.01622  -0.0896  0.0057  0.7377  -9.0988   0.0000   0.2878
  12.800   1.6367   0.02222   0.01650  -0.0891  0.0057  0.7381  -9.2190   0.0000   0.2870
  12.900   1.6428   0.02249   0.01679  -0.0885  0.0057  0.7384  -9.3394   0.0000   0.2863
  13.000   1.6488   0.02277   0.01708  -0.0880  0.0057  0.7387  -9.4595   0.0000   0.2856
  13.100   1.6547   0.02306   0.01738  -0.0874  0.0056  0.7390  -9.5797   0.0000   0.2849
  13.200   1.6605   0.02335   0.01769  -0.0868  0.0056  0.7394  -9.6999   0.0000   0.2842
  13.300   1.6662   0.02366   0.01801  -0.0863  0.0056  0.7397  -9.8192   0.0000   0.2835
  13.400   1.6717   0.02396   0.01833  -0.0857  0.0056  0.7400  -9.9386   0.0000   0.2828
  13.500   1.6773   0.02428   0.01866  -0.0851  0.0055  0.7403  -10.0583   0.0000   0.2821
  13.600   1.6827   0.02461   0.01900  -0.0845  0.0055  0.7406  -10.1774   0.0000   0.2814
  13.700   1.6880   0.02494   0.01935  -0.0839  0.0055  0.7409  -10.2964   0.0000   0.2807
  13.800   1.6933   0.02528   0.01970  -0.0833  0.0054  0.7412  -10.4159   0.0000   0.2800
  13.900   1.6984   0.02563   0.02007  -0.0827  0.0054  0.7415  -10.5346   0.0000   0.2793
  14.000   1.7035   0.02599   0.02044  -0.0821  0.0054  0.7417  -10.6532   0.0000   0.2786
  14.100   1.7085   0.02636   0.02082  -0.0815  0.0053  0.7419  -10.7722   0.0000   0.2779
  14.200   1.7134   0.02673   0.02121  -0.0809  0.0053  0.7422  -10.8902   0.0000   0.2772
  14.300   1.7181   0.02712   0.02161  -0.0803  0.0052  0.7424  -11.0076   0.0000   0.2765
  14.400   1.7227   0.02750   0.02201  -0.0796  0.0052  0.7425  -11.1254   0.0000   0.2758
  14.500   1.7272   0.02791   0.02243  -0.0790  0.0052  0.7427  -11.2422   0.0000   0.2752
  14.600   1.7316   0.02832   0.02286  -0.0784  0.0051  0.7429  -11.3592   0.0000   0.2745
  14.700   1.7361   0.02873   0.02329  -0.0778  0.0051  0.7430  -11.4768   0.0000   0.2738
  14.800   1.7404   0.02916   0.02373  -0.0772  0.0051  0.7435  -11.5937   0.0000   0.2732
  14.900   1.7446   0.02959   0.02419  -0.0766  0.0050  0.7439  -11.7109   0.0000   0.2725
  15.000   1.7489   0.03004   0.02465  -0.0760  0.0050  0.7444  -11.8282   0.0000   0.2718
  15.100   1.7529   0.03050   0.02513  -0.0754  0.0049  0.7448  -11.9439   0.0000   0.2712
  15.200   1.7568   0.03096   0.02561  -0.0748  0.0049  0.7452  -12.0598   0.0000   0.2705
  15.300   1.7607   0.03144   0.02611  -0.0741  0.0049  0.7456  -12.1753   0.0000   0.2699
  15.400   1.7642   0.03194   0.02662  -0.0735  0.0048  0.7459  -12.2890   0.0000   0.2693
  15.500   1.7678   0.03244   0.02714  -0.0729  0.0048  0.7463  -12.4027   0.0000   0.2686
  15.600   1.7711   0.03296   0.02768  -0.0723  0.0048  0.7467  -12.5150   0.0000   0.2680
  15.700   1.7743   0.03350   0.02824  -0.0717  0.0047  0.7470  -12.6264   0.0000   0.2673
  15.800   1.7775   0.03404   0.02881  -0.0711  0.0047  0.7473  -12.7382   0.0000   0.2667
  15.900   1.7804   0.03462   0.02941  -0.0704  0.0046  0.7477  -12.8476   0.0000   0.2661
  16.000   1.7833   0.03521   0.03002  -0.0698  0.0046  0.7480  -12.9570   0.0000   0.2655
  16.100   1.7860   0.03582   0.03065  -0.0692  0.0046  0.7483  -13.0646   0.0000   0.2649
  16.200   1.7885   0.03646   0.03131  -0.0686  0.0045  0.7486  -13.1701   0.0000   0.2643
  16.300   1.7908   0.03711   0.03199  -0.0680  0.0045  0.7489  -13.2748   0.0000   0.2636
  16.400   1.7928   0.03781   0.03272  -0.0674  0.0044  0.7492  -13.3758   0.0000   0.2630
  16.500   1.7947   0.03853   0.03346  -0.0668  0.0044  0.7495  -13.4758   0.0000   0.2625
  16.600   1.7961   0.03929   0.03425  -0.0662  0.0043  0.7498  -13.5714   0.0000   0.2619
  16.700   1.7973   0.04008   0.03506  -0.0656  0.0043  0.7500  -13.6640   0.0000   0.2613
  16.800   1.7980   0.04091   0.03593  -0.0650  0.0043  0.7503  -13.7522   0.0000   0.2607
  16.900   1.7983   0.04179   0.03685  -0.0643  0.0042  0.7505  -13.8372   0.0000   0.2601
  17.000   1.7982   0.04274   0.03783  -0.0637  0.0042  0.7508  -13.9171   0.0000   0.2595
  17.100   1.7978   0.04373   0.03886  -0.0631  0.0041  0.7511  -13.9926   0.0000   0.2590
  17.200   1.7965   0.04482   0.04000  -0.0625  0.0041  0.7513  -14.0603   0.0000   0.2584
  17.300   1.7956   0.04590   0.04112  -0.0619  0.0040  0.7515  -14.1310   0.0000   0.2579
  17.400   1.7975   0.04670   0.04194  -0.0615  0.0040  0.7518  -14.2359   0.0000   0.2574
  17.500   1.7995   0.04749   0.04275  -0.0612  0.0040  0.7520  -14.3421   0.0000   0.2569
  17.600   1.8013   0.04832   0.04361  -0.0608  0.0040  0.7523  -14.4454   0.0000   0.2564
  17.700   1.8031   0.04916   0.04447  -0.0605  0.0040  0.7525  -14.5496   0.0000   0.2560
  17.800   1.8046   0.05003   0.04536  -0.0602  0.0040  0.7528  -14.6515   0.0000   0.2555
  17.900   1.8061   0.05091   0.04627  -0.0599  0.0040  0.7530  -14.7529   0.0000   0.2551
  18.000   1.8074   0.05182   0.04720  -0.0596  0.0040  0.7532  -14.8528   0.0000   0.2547
  18.100   1.8085   0.05275   0.04815  -0.0593  0.0040  0.7534  -14.9506   0.0000   0.2542
  18.200   1.8095   0.05369   0.04913  -0.0590  0.0040  0.7536  -15.0476   0.0000   0.2538
  18.300   1.8102   0.05468   0.05014  -0.0587  0.0040  0.7538  -15.1425   0.0000   0.2534
  18.400   1.8110   0.05568   0.05116  -0.0585  0.0040  0.7540  -15.2374   0.0000   0.2530
  18.500   1.8115   0.05672   0.05223  -0.0583  0.0040  0.7542  -15.3297   0.0000   0.2526
  18.600   1.8120   0.05777   0.05331  -0.0581  0.0040  0.7543  -15.4219   0.0000   0.2523
  18.700   1.8122   0.05887   0.05443  -0.0579  0.0039  0.7545  -15.5113   0.0000   0.2519
  18.800   1.8124   0.05998   0.05557  -0.0577  0.0039  0.7548  -15.6006   0.0000   0.2516
  18.900   1.8124   0.06113   0.05675  -0.0576  0.0039  0.7553  -15.6875   0.0000   0.2512
  19.000   1.8122   0.06231   0.05796  -0.0575  0.0039  0.7557  -15.7728   0.0000   0.2509
  19.100   1.8120   0.06351   0.05919  -0.0574  0.0039  0.7561  -15.8570   0.0000   0.2506
  19.200   1.8114   0.06477   0.06048  -0.0574  0.0039  0.7565  -15.9375   0.0000   0.2503
  19.300   1.8109   0.06603   0.06177  -0.0573  0.0039  0.7569  -16.0185   0.0000   0.2501
  19.400   1.8098   0.06736   0.06314  -0.0573  0.0039  0.7573  -16.0939   0.0000   0.2498
  19.500   1.8089   0.06870   0.06450  -0.0573  0.0039  0.7576  -16.1703   0.0000   0.2496
  19.600   1.8075   0.07009   0.06593  -0.0574  0.0039  0.7579  -16.2419   0.0000   0.2494
  19.700   1.8059   0.07152   0.06739  -0.0575  0.0039  0.7582  -16.3108   0.0000   0.2491
  19.800   1.8042   0.07296   0.06886  -0.0575  0.0038  0.7585  -16.3781   0.0000   0.2489
  19.900   1.8020   0.07449   0.07043  -0.0577  0.0038  0.7588  -16.4396   0.0000   0.2488
  20.000   1.7998   0.07603   0.07200  -0.0578  0.0038  0.7591  -16.5014   0.0000   0.2486


