xflr5 v6.32

 Calculated polar for: foil1 modified

 1 1 Reynolds number fixed          Mach number fixed         

 xtrf =   1.000 (top)        1.000 (bottom)
 Mach =   0.000     Re =     1.000 e 6     Ncrit =   9.000

  alpha     CL        CD       CDp       Cm    Top Xtr Bot Xtr   Cpmin    Chinge    XCp    
 ------- -------- --------- --------- -------- ------- ------- -------- --------- ---------
  -9.700  -0.5583   0.02698   0.02301  -0.1093  0.9090  0.0128  -5.5924   0.0000   0.0406
  -9.600  -0.5542   0.02555   0.02144  -0.1093  0.9077  0.0127  -5.6074   0.0000   0.0393
  -9.500  -0.5488   0.02432   0.02006  -0.1093  0.9066  0.0126  -5.6244   0.0000   0.0374
  -9.400  -0.5425   0.02324   0.01885  -0.1093  0.9057  0.0126  -5.6299   0.0000   0.0351
  -9.300  -0.5353   0.02230   0.01779  -0.1092  0.9044  0.0125  -5.6237   0.0000   0.0325
  -9.200  -0.5275   0.02148   0.01687  -0.1092  0.9031  0.0125  -5.6057   0.0000   0.0295
  -9.100  -0.5192   0.02076   0.01606  -0.1092  0.9020  0.0125  -5.5769   0.0000   0.0263
  -9.000  -0.5105   0.02012   0.01534  -0.1092  0.9010  0.0126  -5.5389   0.0000   0.0227
  -8.900  -0.5015   0.01956   0.01469  -0.1092  0.9001  0.0126  -5.4931   0.0000   0.0189
  -8.800  -0.4922   0.01905   0.01411  -0.1092  0.8992  0.0127  -5.4408   0.0000   0.0148
  -8.700  -0.4827   0.01859   0.01358  -0.1092  0.8984  0.0127  -5.3829   0.0000   0.0104
  -8.600  -0.4732   0.01817   0.01311  -0.1092  0.8973  0.0128  -5.3204   0.0000   0.0058
  -8.500  -0.4634   0.01779   0.01267  -0.1093  0.8962  0.0128  -5.2537   0.0000   0.0008
  -8.400  -0.4536   0.01743   0.01227  -0.1093  0.8952  0.0129  -5.1834   0.0000  -0.0044
  -8.300  -0.4436   0.01710   0.01189  -0.1093  0.8942  0.0129  -5.1100   0.0000  -0.0099
  -8.200  -0.4334   0.01680   0.01154  -0.1094  0.8933  0.0130  -5.0338   0.0000  -0.0158
  -8.100  -0.4232   0.01651   0.01121  -0.1094  0.8925  0.0130  -4.9553   0.0000  -0.0221
  -8.000  -0.4129   0.01625   0.01091  -0.1095  0.8918  0.0131  -4.8747   0.0000  -0.0288
  -7.900  -0.4025   0.01601   0.01063  -0.1096  0.8910  0.0131  -4.7923   0.0000  -0.0359
  -7.700  -0.3831   0.01521   0.00978  -0.1095  0.8888  0.0132  -4.6592   0.0000  -0.0496
  -7.600  -0.3739   0.01474   0.00928  -0.1094  0.8877  0.0133  -4.6000   0.0000  -0.0565
  -7.500  -0.3643   0.01434   0.00885  -0.1094  0.8867  0.0134  -4.5331   0.0000  -0.0641
  -7.400  -0.3545   0.01399   0.00848  -0.1094  0.8858  0.0134  -4.4600   0.0000  -0.0726
  -7.300  -0.3444   0.01368   0.00815  -0.1095  0.8849  0.0135  -4.3823   0.0000  -0.0820
  -7.200  -0.3341   0.01341   0.00786  -0.1095  0.8841  0.0136  -4.3010   0.0000  -0.0922
  -7.100  -0.3236   0.01317   0.00761  -0.1097  0.8834  0.0137  -4.2172   0.0000  -0.1033
  -7.000  -0.3132   0.01294   0.00738  -0.1098  0.8822  0.0138  -4.1326   0.0000  -0.1151
  -6.900  -0.3026   0.01273   0.00716  -0.1099  0.8811  0.0139  -4.0471   0.0000  -0.1279
  -6.800  -0.2920   0.01254   0.00696  -0.1101  0.8800  0.0140  -3.9611   0.0000  -0.1418
  -6.700  -0.2812   0.01235   0.00676  -0.1102  0.8790  0.0142  -3.8751   0.0000  -0.1570
  -6.600  -0.2703   0.01216   0.00656  -0.1104  0.8781  0.0143  -3.7893   0.0000  -0.1737
  -6.500  -0.2594   0.01199   0.00637  -0.1105  0.8772  0.0144  -3.7040   0.0000  -0.1919
  -6.400  -0.2483   0.01182   0.00618  -0.1107  0.8764  0.0146  -3.6191   0.0000  -0.2119
  -6.300  -0.2372   0.01165   0.00600  -0.1109  0.8757  0.0147  -3.5349   0.0000  -0.2340
  -6.200  -0.2262   0.01149   0.00583  -0.1111  0.8746  0.0149  -3.4515   0.0000  -0.2578
  -6.100  -0.2152   0.01134   0.00568  -0.1113  0.8735  0.0151  -3.3676   0.0000  -0.2842
  -6.000  -0.2041   0.01120   0.00553  -0.1114  0.8725  0.0154  -3.2837   0.0000  -0.3138
  -5.900  -0.1929   0.01107   0.00539  -0.1116  0.8715  0.0156  -3.2002   0.0000  -0.3471
  -5.800  -0.1816   0.01095   0.00524  -0.1118  0.8705  0.0158  -3.1170   0.0000  -0.3848
  -5.700  -0.1702   0.01083   0.00511  -0.1120  0.8696  0.0160  -3.0341   0.0000  -0.4279
  -5.600  -0.1588   0.01071   0.00497  -0.1122  0.8688  0.0162  -2.9525   0.0000  -0.4774
  -5.500  -0.1476   0.01042   0.00466  -0.1125  0.8680  0.0167  -2.8851   0.0000  -0.5338
  -5.400  -0.1364   0.01025   0.00449  -0.1127  0.8670  0.0171  -2.8067   0.0000  -0.5993
  -5.300  -0.1252   0.01012   0.00436  -0.1129  0.8658  0.0175  -2.7257   0.0000  -0.6766
  -5.200  -0.1138   0.01000   0.00425  -0.1131  0.8647  0.0179  -2.6450   0.0000  -0.7702
  -5.100  -0.1024   0.00990   0.00413  -0.1134  0.8637  0.0184  -2.5653   0.0000  -0.8855
  -5.000  -0.0908   0.00979   0.00402  -0.1136  0.8627  0.0189  -2.4866   0.0000  -1.0310
  -4.900  -0.0793   0.00970   0.00391  -0.1138  0.8618  0.0194  -2.4083   0.0000  -1.2199
  -4.800  -0.0677   0.00954   0.00374  -0.1140  0.8609  0.0203  -2.3388   0.0000  -1.4742
  -4.700  -0.0560   0.00942   0.00362  -0.1143  0.8602  0.0213  -2.2733   0.0000  -1.8358
  -4.600  -0.0444   0.00933   0.00352  -0.1145  0.8593  0.0224  -2.2080   0.0000  -2.3857
  -4.500  -0.0330   0.00922   0.00342  -0.1147  0.8581  0.0240  -2.1472   0.0000  -3.2988
  -4.400  -0.0215   0.00910   0.00332  -0.1149  0.8568  0.0262  -2.0829   0.0000  -5.1930
  -4.300  -0.0100   0.00899   0.00321  -0.1151  0.8556  0.0293  -2.0192   0.0000  -11.5039
  -4.200   0.0016   0.00887   0.00312  -0.1154  0.8545  0.0336  -1.9540   0.0000  72.3950
  -4.100   0.0133   0.00876   0.00302  -0.1156  0.8535  0.0397  -1.8872   0.0000   9.1026
  -4.000   0.0250   0.00863   0.00293  -0.1159  0.8526  0.0488  -1.8194   0.0000   4.9647
  -3.900   0.0368   0.00849   0.00284  -0.1162  0.8518  0.0618  -1.7510   0.0000   3.4634
  -3.800   0.0485   0.00834   0.00276  -0.1166  0.8508  0.0792  -1.6829   0.0000   2.6949
  -3.700   0.0600   0.00817   0.00268  -0.1169  0.8496  0.1014  -1.6157   0.0000   2.2305
  -3.600   0.0716   0.00797   0.00260  -0.1173  0.8483  0.1299  -1.5487   0.0000   1.9133
  -3.500   0.0833   0.00773   0.00250  -0.1177  0.8472  0.1690  -1.4822   0.0000   1.6838
  -3.400   0.0952   0.00742   0.00238  -0.1183  0.8460  0.2225  -1.4161   0.0000   1.5103
  -3.300   0.1073   0.00703   0.00223  -0.1190  0.8449  0.2949  -1.3504   0.0000   1.3747
  -3.200   0.1195   0.00658   0.00206  -0.1198  0.8439  0.3796  -1.2849   0.0000   1.2659
  -3.100   0.1317   0.00616   0.00191  -0.1205  0.8430  0.4618  -1.2195   0.0000   1.1764
  -3.000   0.1436   0.00585   0.00182  -0.1210  0.8417  0.5287  -1.1554   0.0000   1.1031
  -2.900   0.1552   0.00568   0.00179  -0.1213  0.8403  0.5729  -1.0923   0.0000   1.0407
  -2.800   0.1668   0.00559   0.00179  -0.1215  0.8390  0.6012  -1.0298   0.0000   0.9865
  -2.700   0.1784   0.00556   0.00180  -0.1216  0.8378  0.6194  -0.9678   0.0000   0.9388
  -2.600   0.1902   0.00555   0.00180  -0.1218  0.8367  0.6312  -0.9066   0.0000   0.8968
  -2.500   0.2019   0.00555   0.00180  -0.1219  0.8356  0.6399  -0.8461   0.0000   0.8595
  -2.400   0.2137   0.00556   0.00181  -0.1221  0.8347  0.6471  -0.7865   0.0000   0.8263
  -2.300   0.2254   0.00557   0.00182  -0.1222  0.8335  0.6544  -0.7280   0.0000   0.7967
  -2.200   0.2369   0.00559   0.00185  -0.1223  0.8320  0.6602  -0.6708   0.0000   0.7703
  -2.100   0.2485   0.00561   0.00186  -0.1224  0.8306  0.6655  -0.6142   0.0000   0.7461
  -2.000   0.2601   0.00564   0.00189  -0.1225  0.8292  0.6704  -0.5585   0.0000   0.7241
  -1.900   0.2719   0.00567   0.00190  -0.1226  0.8279  0.6757  -0.5441   0.0000   0.7037
  -1.800   0.2835   0.00571   0.00195  -0.1226  0.8267  0.6794  -0.5491   0.0000   0.6852
  -1.700   0.2953   0.00577   0.00198  -0.1228  0.8256  0.6839  -0.5542   0.0000   0.6680
  -1.600   0.3067   0.00582   0.00204  -0.1228  0.8240  0.6881  -0.5595   0.0000   0.6523
  -1.500   0.3179   0.00590   0.00214  -0.1227  0.8224  0.6918  -0.5648   0.0000   0.6377
  -1.400   0.3295   0.00597   0.00220  -0.1228  0.8208  0.6956  -0.5703   0.0000   0.6241
  -1.300   0.3412   0.00601   0.00221  -0.1229  0.8194  0.6983  -0.5759   0.0000   0.6114
  -1.200   0.3527   0.00604   0.00224  -0.1230  0.8181  0.6995  -0.5814   0.0000   0.5996
  -1.100   0.3643   0.00607   0.00227  -0.1230  0.8169  0.7006  -0.5870   0.0000   0.5885
  -1.000   0.3758   0.00609   0.00229  -0.1231  0.8152  0.7015  -0.5924   0.0000   0.5782
  -0.900   0.3872   0.00610   0.00230  -0.1232  0.8134  0.7025  -0.5983   0.0000   0.5685
  -0.800   0.3988   0.00611   0.00231  -0.1233  0.8117  0.7035  -0.6042   0.0000   0.5594
  -0.700   0.4104   0.00612   0.00231  -0.1234  0.8101  0.7045  -0.6102   0.0000   0.5508
  -0.600   0.4222   0.00613   0.00230  -0.1236  0.8087  0.7056  -0.6163   0.0000   0.5426
  -0.500   0.4339   0.00615   0.00229  -0.1237  0.8072  0.7068  -0.6223   0.0000   0.5349
  -0.400   0.4455   0.00615   0.00229  -0.1239  0.8050  0.7080  -0.6282   0.0000   0.5276
  -0.300   0.4571   0.00616   0.00229  -0.1240  0.8030  0.7091  -0.6342   0.0000   0.5207
  -0.200   0.4685   0.00616   0.00229  -0.1241  0.8012  0.7097  -0.6401   0.0000   0.5141
  -0.100   0.4800   0.00617   0.00229  -0.1242  0.7995  0.7103  -0.6466   0.0000   0.5078
   0.000   0.4915   0.00618   0.00230  -0.1243  0.7977  0.7109  -0.6532   0.0000   0.5018
   0.100   0.5029   0.00618   0.00232  -0.1243  0.7954  0.7115  -0.6598   0.0000   0.4961
   0.200   0.5143   0.00619   0.00233  -0.1244  0.7933  0.7121  -0.6667   0.0000   0.4906
   0.300   0.5258   0.00620   0.00233  -0.1245  0.7913  0.7128  -0.6739   0.0000   0.4854
   0.400   0.5373   0.00622   0.00233  -0.1246  0.7895  0.7134  -0.6813   0.0000   0.4803
   0.500   0.5487   0.00623   0.00235  -0.1247  0.7870  0.7142  -0.6888   0.0000   0.4756
   0.600   0.5600   0.00624   0.00236  -0.1247  0.7844  0.7150  -0.6962   0.0000   0.4710
   0.700   0.5715   0.00625   0.00237  -0.1248  0.7820  0.7158  -0.7043   0.0000   0.4665
   0.800   0.5830   0.00627   0.00237  -0.1249  0.7799  0.7167  -0.7125   0.0000   0.4623
   0.900   0.5944   0.00628   0.00238  -0.1250  0.7770  0.7176  -0.7213   0.0000   0.4582
   1.000   0.6059   0.00628   0.00238  -0.1251  0.7743  0.7185  -0.7304   0.0000   0.4543
   1.100   0.6174   0.00630   0.00237  -0.1252  0.7718  0.7193  -0.7396   0.0000   0.4505
   1.200   0.6290   0.00631   0.00237  -0.1254  0.7692  0.7202  -0.7488   0.0000   0.4469
   1.300   0.6402   0.00631   0.00238  -0.1254  0.7660  0.7207  -0.7589   0.0000   0.4434
   1.400   0.6514   0.00632   0.00239  -0.1254  0.7630  0.7212  -0.7690   0.0000   0.4400
   1.500   0.6626   0.00634   0.00240  -0.1255  0.7601  0.7217  -0.7792   0.0000   0.4366
   1.600   0.6738   0.00635   0.00242  -0.1255  0.7567  0.7222  -0.7904   0.0000   0.4335
   1.700   0.6850   0.00636   0.00244  -0.1255  0.7535  0.7228  -0.8018   0.0000   0.4304
   1.900   0.7076   0.00640   0.00248  -0.1256  0.7477  0.7238  -0.8248   0.0000   0.4245
   2.000   0.7188   0.00642   0.00250  -0.1257  0.7445  0.7243  -0.8363   0.0000   0.4217
   2.100   0.7300   0.00645   0.00252  -0.1257  0.7416  0.7249  -0.8482   0.0000   0.4189
   2.200   0.7412   0.00647   0.00255  -0.1258  0.7380  0.7255  -0.8613   0.0000   0.4163
   2.300   0.7523   0.00649   0.00257  -0.1258  0.7340  0.7261  -0.8747   0.0000   0.4137
   2.400   0.7633   0.00652   0.00259  -0.1258  0.7298  0.7268  -0.8943   0.0000   0.4112
   2.500   0.7743   0.00655   0.00261  -0.1258  0.7241  0.7275  -0.9141   0.0000   0.4088
   2.600   0.7851   0.00658   0.00262  -0.1258  0.7182  0.7283  -0.9365   0.0000   0.4064
   2.700   0.7958   0.00663   0.00264  -0.1257  0.7113  0.7290  -0.9598   0.0000   0.4040
   2.800   0.8065   0.00666   0.00266  -0.1256  0.7040  0.7298  -0.9856   0.0000   0.4018
   2.900   0.8172   0.00671   0.00268  -0.1256  0.6969  0.7305  -1.0119   0.0000   0.3996
   3.000   0.8278   0.00677   0.00271  -0.1255  0.6897  0.7311  -1.0395   0.0000   0.3974
   3.100   0.8385   0.00681   0.00273  -0.1255  0.6818  0.7316  -1.0727   0.0000   0.3953
   3.200   0.8488   0.00686   0.00276  -0.1254  0.6737  0.7321  -1.1059   0.0000   0.3933
   3.300   0.8590   0.00691   0.00279  -0.1252  0.6651  0.7325  -1.1391   0.0000   0.3912
   3.400   0.8690   0.00698   0.00283  -0.1250  0.6557  0.7329  -1.1752   0.0000   0.3892
   3.500   0.8789   0.00706   0.00288  -0.1248  0.6456  0.7334  -1.2159   0.0000   0.3873
   3.600   0.8887   0.00715   0.00294  -0.1246  0.6352  0.7338  -1.2568   0.0000   0.3853
   3.700   0.8983   0.00725   0.00300  -0.1243  0.6235  0.7343  -1.2978   0.0000   0.3834
   3.800   0.9077   0.00736   0.00307  -0.1240  0.6101  0.7348  -1.3386   0.0000   0.3816
   3.900   0.9169   0.00748   0.00314  -0.1237  0.5965  0.7353  -1.3794   0.0000   0.3797
   4.000   0.9259   0.00762   0.00322  -0.1233  0.5821  0.7358  -1.4200   0.0000   0.3779
   4.100   0.9349   0.00776   0.00331  -0.1229  0.5672  0.7364  -1.4611   0.0000   0.3761
   4.200   0.9437   0.00791   0.00339  -0.1225  0.5510  0.7369  -1.5106   0.0000   0.3744
   4.300   0.9522   0.00809   0.00349  -0.1221  0.5336  0.7375  -1.5622   0.0000   0.3727
   4.400   0.9603   0.00828   0.00360  -0.1216  0.5148  0.7381  -1.6135   0.0000   0.3710
   4.500   0.9686   0.00847   0.00371  -0.1211  0.4950  0.7387  -1.6654   0.0000   0.3693
   4.600   0.9764   0.00869   0.00383  -0.1206  0.4740  0.7393  -1.7168   0.0000   0.3676
   4.700   0.9842   0.00891   0.00396  -0.1201  0.4525  0.7400  -1.7684   0.0000   0.3660
   4.800   0.9918   0.00915   0.00409  -0.1195  0.4306  0.7406  -1.8246   0.0000   0.3644
   4.900   0.9994   0.00939   0.00422  -0.1190  0.4083  0.7412  -1.8812   0.0000   0.3628
   5.000   1.0071   0.00963   0.00436  -0.1184  0.3874  0.7418  -1.9384   0.0000   0.3613
   5.100   1.0148   0.00987   0.00449  -0.1179  0.3671  0.7424  -1.9964   0.0000   0.3598
   5.200   1.0227   0.01010   0.00463  -0.1174  0.3476  0.7429  -2.0553   0.0000   0.3583
   5.300   1.0305   0.01032   0.00476  -0.1170  0.3287  0.7433  -2.1145   0.0000   0.3568
   5.400   1.0380   0.01055   0.00491  -0.1164  0.3100  0.7437  -2.1736   0.0000   0.3554
   5.500   1.0454   0.01079   0.00506  -0.1158  0.2908  0.7442  -2.2324   0.0000   0.3539
   5.600   1.0524   0.01105   0.00522  -0.1152  0.2702  0.7446  -2.2906   0.0000   0.3525
   5.700   1.0593   0.01133   0.00539  -0.1146  0.2497  0.7450  -2.3488   0.0000   0.3510
   5.800   1.0659   0.01161   0.00557  -0.1139  0.2283  0.7454  -2.4067   0.0000   0.3496
   5.900   1.0725   0.01190   0.00576  -0.1132  0.2081  0.7459  -2.4650   0.0000   0.3482
   6.000   1.0791   0.01219   0.00594  -0.1125  0.1886  0.7463  -2.5234   0.0000   0.3468
   6.100   1.0858   0.01246   0.00612  -0.1118  0.1709  0.7468  -2.5829   0.0000   0.3454
   6.200   1.0926   0.01273   0.00631  -0.1112  0.1549  0.7472  -2.6431   0.0000   0.3441
   6.300   1.0996   0.01298   0.00649  -0.1105  0.1409  0.7476  -2.7043   0.0000   0.3427
   6.400   1.1063   0.01322   0.00666  -0.1098  0.1284  0.7481  -2.7648   0.0000   0.3414
   6.500   1.1130   0.01344   0.00683  -0.1091  0.1178  0.7486  -2.8275   0.0000   0.3400
   6.600   1.1195   0.01366   0.00699  -0.1084  0.1077  0.7492  -2.8938   0.0000   0.3387
   6.800   1.1328   0.01408   0.00733  -0.1070  0.0911  0.7503  -3.0287   0.0000   0.3360
   6.900   1.1400   0.01429   0.00750  -0.1064  0.0836  0.7508  -3.0991   0.0000   0.3348
   7.000   1.1474   0.01450   0.00767  -0.1058  0.0766  0.7514  -3.1708   0.0000   0.3336
   7.100   1.1549   0.01471   0.00785  -0.1053  0.0704  0.7519  -3.2435   0.0000   0.3324
   7.200   1.1626   0.01492   0.00803  -0.1048  0.0649  0.7524  -3.3172   0.0000   0.3313
   7.300   1.1702   0.01513   0.00821  -0.1044  0.0598  0.7529  -3.3914   0.0000   0.3302
   7.400   1.1778   0.01534   0.00839  -0.1039  0.0554  0.7534  -3.4659   0.0000   0.3290
   7.500   1.1854   0.01555   0.00858  -0.1034  0.0513  0.7538  -3.5411   0.0000   0.3279
   7.600   1.1932   0.01575   0.00876  -0.1029  0.0476  0.7543  -3.6175   0.0000   0.3269
   7.700   1.2008   0.01595   0.00894  -0.1024  0.0443  0.7547  -3.6934   0.0000   0.3258
   7.900   1.2157   0.01634   0.00932  -0.1014  0.0385  0.7556  -3.8460   0.0000   0.3236
   8.000   1.2230   0.01655   0.00952  -0.1009  0.0361  0.7560  -3.9218   0.0000   0.3226
   8.100   1.2304   0.01675   0.00972  -0.1004  0.0338  0.7564  -3.9990   0.0000   0.3215
   8.200   1.2375   0.01697   0.00994  -0.0998  0.0319  0.7568  -4.0750   0.0000   0.3205
   8.300   1.2449   0.01718   0.01015  -0.0993  0.0301  0.7572  -4.1526   0.0000   0.3194
   8.400   1.2515   0.01743   0.01039  -0.0987  0.0284  0.7576  -4.2273   0.0000   0.3184
   8.500   1.2592   0.01762   0.01059  -0.0982  0.0270  0.7581  -4.3067   0.0000   0.3174
   8.600   1.2661   0.01785   0.01082  -0.0976  0.0257  0.7585  -4.3840   0.0000   0.3164
   8.700   1.2729   0.01810   0.01107  -0.0970  0.0244  0.7589  -4.4598   0.0000   0.3154
   8.800   1.2803   0.01829   0.01128  -0.0966  0.0233  0.7594  -4.5398   0.0000   0.3144
   8.900   1.2872   0.01853   0.01151  -0.0960  0.0223  0.7598  -4.6181   0.0000   0.3134
   9.000   1.2933   0.01883   0.01181  -0.0953  0.0212  0.7602  -4.6911   0.0000   0.3124
   9.100   1.3008   0.01902   0.01202  -0.0949  0.0205  0.7606  -4.7722   0.0000   0.3115
   9.200   1.3080   0.01924   0.01226  -0.0944  0.0198  0.7611  -4.8595   0.0000   0.3106
   9.300   1.3147   0.01950   0.01251  -0.0938  0.0190  0.7615  -4.9455   0.0000   0.3096
   9.400   1.3206   0.01981   0.01282  -0.0931  0.0183  0.7619  -5.0267   0.0000   0.3086
   9.500   1.3269   0.02009   0.01312  -0.0925  0.0178  0.7624  -5.1098   0.0000   0.3077
   9.600   1.3340   0.02032   0.01337  -0.0920  0.0173  0.7628  -5.1981   0.0000   0.3068
   9.700   1.3408   0.02056   0.01363  -0.0915  0.0168  0.7633  -5.2862   0.0000   0.3059
   9.800   1.3474   0.02083   0.01391  -0.0909  0.0164  0.7637  -5.3740   0.0000   0.3050
   9.900   1.3536   0.02112   0.01421  -0.0903  0.0160  0.7641  -5.4603   0.0000   0.3041
  10.000   1.3592   0.02146   0.01455  -0.0896  0.0155  0.7646  -5.5427   0.0000   0.3032
  10.100   1.3633   0.02190   0.01500  -0.0887  0.0151  0.7650  -5.6141   0.0000   0.3022
  10.200   1.3699   0.02217   0.01529  -0.0882  0.0149  0.7654  -5.7026   0.0000   0.3013
  10.300   1.3764   0.02244   0.01559  -0.0877  0.0146  0.7658  -5.7917   0.0000   0.3005
  10.400   1.3827   0.02273   0.01590  -0.0871  0.0144  0.7662  -5.8798   0.0000   0.2996
  10.500   1.3889   0.02302   0.01621  -0.0865  0.0141  0.7666  -5.9677   0.0000   0.2988
  10.600   1.3948   0.02332   0.01653  -0.0860  0.0138  0.7670  -6.0554   0.0000   0.2979
  10.700   1.4007   0.02363   0.01686  -0.0854  0.0136  0.7674  -6.1432   0.0000   0.2971
  10.800   1.4064   0.02395   0.01721  -0.0847  0.0134  0.7677  -6.2309   0.0000   0.2962
  10.900   1.4118   0.02430   0.01758  -0.0841  0.0132  0.7681  -6.3173   0.0000   0.2954
  11.000   1.4167   0.02469   0.01798  -0.0834  0.0129  0.7684  -6.4012   0.0000   0.2945
  11.100   1.4208   0.02513   0.01845  -0.0826  0.0127  0.7687  -6.4793   0.0000   0.2936
  11.200   1.4234   0.02570   0.01904  -0.0816  0.0124  0.7691  -6.5455   0.0000   0.2927
  11.300   1.4270   0.02618   0.01955  -0.0808  0.0123  0.7694  -6.6191   0.0000   0.2918
  11.400   1.4331   0.02648   0.01988  -0.0803  0.0121  0.7698  -6.7173   0.0000   0.2910
  11.500   1.4389   0.02681   0.02024  -0.0797  0.0120  0.7702  -6.8159   0.0000   0.2903
  11.600   1.4444   0.02716   0.02062  -0.0792  0.0119  0.7705  -6.9132   0.0000   0.2895
  11.700   1.4497   0.02753   0.02102  -0.0786  0.0117  0.7710  -7.0093   0.0000   0.2887
  11.800   1.4547   0.02793   0.02144  -0.0779  0.0116  0.7714  -7.1041   0.0000   0.2879
  11.900   1.4595   0.02833   0.02187  -0.0773  0.0114  0.7718  -7.1982   0.0000   0.2871
  12.000   1.4642   0.02875   0.02232  -0.0767  0.0113  0.7722  -7.2920   0.0000   0.2864
  12.100   1.4688   0.02919   0.02277  -0.0761  0.0111  0.7727  -7.3857   0.0000   0.2856
  12.200   1.4733   0.02962   0.02323  -0.0754  0.0110  0.7731  -7.4795   0.0000   0.2849
  12.300   1.4777   0.03007   0.02371  -0.0748  0.0109  0.7735  -7.5730   0.0000   0.2841
  12.400   1.4819   0.03053   0.02419  -0.0742  0.0108  0.7739  -7.6663   0.0000   0.2833
  12.500   1.4861   0.03101   0.02469  -0.0735  0.0106  0.7743  -7.7595   0.0000   0.2826
  12.600   1.4899   0.03151   0.02521  -0.0729  0.0105  0.7747  -7.8510   0.0000   0.2819
  12.700   1.4934   0.03204   0.02577  -0.0722  0.0104  0.7750  -7.9398   0.0000   0.2811
  12.800   1.4962   0.03263   0.02638  -0.0715  0.0103  0.7754  -8.0242   0.0000   0.2804
  12.900   1.4984   0.03328   0.02706  -0.0707  0.0102  0.7758  -8.1027   0.0000   0.2796
  13.000   1.4995   0.03403   0.02783  -0.0698  0.0101  0.7761  -8.1729   0.0000   0.2788
  13.100   1.4993   0.03488   0.02872  -0.0689  0.0100  0.7765  -8.2315   0.0000   0.2780
  13.200   1.4975   0.03587   0.02976  -0.0678  0.0099  0.7768  -8.2757   0.0000   0.2771
  13.300   1.5003   0.03649   0.03041  -0.0671  0.0098  0.7772  -8.3594   0.0000   0.2764
  13.400   1.5039   0.03705   0.03100  -0.0666  0.0098  0.7775  -8.4501   0.0000   0.2758
  13.500   1.5073   0.03763   0.03161  -0.0660  0.0097  0.7778  -8.5395   0.0000   0.2751
  13.600   1.5105   0.03822   0.03225  -0.0655  0.0096  0.7782  -8.6275   0.0000   0.2744
  13.700   1.5134   0.03885   0.03291  -0.0649  0.0096  0.7786  -8.7136   0.0000   0.2738
  13.800   1.5162   0.03949   0.03359  -0.0643  0.0095  0.7789  -8.7992   0.0000   0.2732
  13.900   1.5189   0.04016   0.03430  -0.0638  0.0094  0.7792  -8.8840   0.0000   0.2725
  14.000   1.5215   0.04083   0.03501  -0.0632  0.0094  0.7796  -8.9688   0.0000   0.2719
  14.100   1.5239   0.04153   0.03574  -0.0627  0.0093  0.7799  -9.0527   0.0000   0.2713
  14.200   1.5262   0.04224   0.03649  -0.0622  0.0092  0.7802  -9.1362   0.0000   0.2707
  14.300   1.5285   0.04296   0.03725  -0.0617  0.0091  0.7805  -9.2197   0.0000   0.2701
  14.400   1.5306   0.04370   0.03803  -0.0612  0.0091  0.7808  -9.3029   0.0000   0.2695
  14.500   1.5328   0.04446   0.03883  -0.0607  0.0090  0.7811  -9.3866   0.0000   0.2689
  14.600   1.5348   0.04524   0.03964  -0.0602  0.0089  0.7814  -9.4697   0.0000   0.2684
  14.700   1.5368   0.04603   0.04046  -0.0598  0.0088  0.7818  -9.5533   0.0000   0.2678
  14.800   1.5387   0.04684   0.04131  -0.0594  0.0087  0.7821  -9.6360   0.0000   0.2673
  14.900   1.5405   0.04767   0.04217  -0.0590  0.0087  0.7824  -9.7189   0.0000   0.2668
  15.000   1.5422   0.04853   0.04307  -0.0586  0.0086  0.7827  -9.8006   0.0000   0.2663
  15.100   1.5437   0.04940   0.04398  -0.0582  0.0085  0.7831  -9.8818   0.0000   0.2658
  15.200   1.5450   0.05032   0.04492  -0.0579  0.0085  0.7834  -9.9611   0.0000   0.2653
  15.300   1.5462   0.05126   0.04590  -0.0575  0.0084  0.7838  -10.0393   0.0000   0.2649
  15.400   1.5470   0.05224   0.04692  -0.0572  0.0084  0.7841  -10.1146   0.0000   0.2644
  15.500   1.5476   0.05325   0.04797  -0.0569  0.0083  0.7845  -10.1876   0.0000   0.2640
  15.600   1.5478   0.05432   0.04907  -0.0566  0.0083  0.7849  -10.2572   0.0000   0.2636
  15.700   1.5477   0.05543   0.05022  -0.0563  0.0082  0.7852  -10.3246   0.0000   0.2632
  15.800   1.5474   0.05660   0.05142  -0.0560  0.0082  0.7856  -10.3888   0.0000   0.2628
  15.900   1.5466   0.05783   0.05268  -0.0558  0.0081  0.7860  -10.4491   0.0000   0.2624
  16.000   1.5455   0.05911   0.05401  -0.0555  0.0081  0.7863  -10.5055   0.0000   0.2621
  16.100   1.5438   0.06049   0.05542  -0.0554  0.0080  0.7866  -10.5563   0.0000   0.2618
  16.200   1.5417   0.06193   0.05692  -0.0552  0.0080  0.7869  -10.6018   0.0000   0.2615
  16.300   1.5390   0.06347   0.05849  -0.0550  0.0079  0.7872  -10.6415   0.0000   0.2612
  16.400   1.5358   0.06509   0.06016  -0.0549  0.0079  0.7875  -10.6744   0.0000   0.2610
  16.500   1.5318   0.06682   0.06194  -0.0549  0.0078  0.7877  -10.7000   0.0000   0.2608
  16.600   1.5273   0.06865   0.06382  -0.0548  0.0078  0.7879  -10.7178   0.0000   0.2606
  16.700   1.5220   0.07058   0.06581  -0.0548  0.0077  0.7882  -10.7268   0.0000   0.2605
  16.800   1.5159   0.07262   0.06792  -0.0548  0.0077  0.7884  -10.7268   0.0000   0.2605
  16.900   1.5104   0.07466   0.07001  -0.0549  0.0076  0.7885  -10.7306   0.0000   0.2604
  17.000   1.5092   0.07616   0.07156  -0.0551  0.0076  0.7888  -10.7826   0.0000   0.2603
  17.100   1.5079   0.07770   0.07314  -0.0554  0.0076  0.7890  -10.8326   0.0000   0.2603
  17.300   1.5047   0.08092   0.07646  -0.0559  0.0076  0.7895  -10.9251   0.0000   0.2603
  17.400   1.5028   0.08260   0.07820  -0.0563  0.0076  0.7898  -10.9675   0.0000   0.2603
  17.500   1.5007   0.08432   0.07997  -0.0566  0.0075  0.7901  -11.0075   0.0000   0.2604
  17.600   1.4983   0.08610   0.08180  -0.0571  0.0075  0.7904  -11.0445   0.0000   0.2604
  17.700   1.4957   0.08794   0.08369  -0.0575  0.0075  0.7906  -11.0782   0.0000   0.2606
  17.800   1.4929   0.08982   0.08562  -0.0580  0.0075  0.7909  -11.1095   0.0000   0.2607
  17.900   1.4900   0.09174   0.08760  -0.0586  0.0075  0.7911  -11.1382   0.0000   0.2609
  18.000   1.4868   0.09371   0.08962  -0.0592  0.0074  0.7914  -11.1636   0.0000   0.2612
  18.100   1.4832   0.09573   0.09170  -0.0598  0.0074  0.7916  -11.1853   0.0000   0.2614
  18.200   1.4795   0.09780   0.09382  -0.0605  0.0074  0.7918  -11.2042   0.0000   0.2618
  18.300   1.4757   0.09992   0.09599  -0.0612  0.0074  0.7921  -11.2205   0.0000   0.2621
  18.400   1.4717   0.10208   0.09821  -0.0620  0.0074  0.7923  -11.2345   0.0000   0.2625
  18.500   1.4676   0.10429   0.10047  -0.0628  0.0073  0.7925  -11.2457   0.0000   0.2629
  18.600   1.4634   0.10655   0.10279  -0.0637  0.0073  0.7928  -11.2540   0.0000   0.2634
  18.700   1.4589   0.10886   0.10515  -0.0646  0.0073  0.7930  -11.2593   0.0000   0.2639
  18.800   1.4544   0.11121   0.10755  -0.0656  0.0073  0.7933  -11.2620   0.0000   0.2645
  18.900   1.4498   0.11360   0.10999  -0.0666  0.0073  0.7935  -11.2622   0.0000   0.2651
  19.000   1.4450   0.11603   0.11248  -0.0677  0.0073  0.7938  -11.2598   0.0000   0.2657
  19.100   1.4402   0.11849   0.11500  -0.0688  0.0072  0.7940  -11.2547   0.0000   0.2664
  19.200   1.4353   0.12100   0.11755  -0.0700  0.0072  0.7943  -11.2469   0.0000   0.2671
  19.300   1.4302   0.12354   0.12015  -0.0712  0.0072  0.7945  -11.2362   0.0000   0.2679
  19.400   1.4251   0.12612   0.12279  -0.0725  0.0072  0.7948  -11.2225   0.0000   0.2688
  19.500   1.4198   0.12874   0.12546  -0.0738  0.0072  0.7950  -11.2052   0.0000   0.2696
  19.600   1.4145   0.13139   0.12816  -0.0751  0.0072  0.7953  -11.1847   0.0000   0.2706
  19.700   1.4090   0.13408   0.13090  -0.0766  0.0072  0.7955  -11.1615   0.0000   0.2715
  19.800   1.4036   0.13681   0.13369  -0.0780  0.0071  0.7957  -11.1357   0.0000   0.2725
  19.900   1.3981   0.13957   0.13650  -0.0795  0.0071  0.7959  -11.1071   0.0000   0.2736
  20.000   1.3926   0.14237   0.13935  -0.0811  0.0071  0.7962  -11.0755   0.0000   0.2747


