xflr5 v6.32

 Calculated polar for: foil1 modified

 1 1 Reynolds number fixed          Mach number fixed         

 xtrf =   1.000 (top)        1.000 (bottom)
 Mach =   0.000     Re =     0.200 e 6     Ncrit =   9.000

  alpha     CL        CD       CDp       Cm    Top Xtr Bot Xtr   Cpmin    Chinge    XCp    
 ------- -------- --------- --------- -------- ------- ------- -------- --------- ---------
 -14.500  -0.4038   0.15710   0.15316  -0.0461  1.0000  0.0407  -1.6921   0.0000   0.1124
 -14.400  -0.4099   0.15542   0.15151  -0.0482  1.0000  0.0410  -1.7916   0.0000   0.1094
 -14.200  -0.4046   0.15249   0.14859  -0.0485  1.0000  0.0413  -1.7673   0.0000   0.1073
 -14.100  -0.3979   0.15143   0.14754  -0.0478  1.0000  0.0416  -1.6994   0.0000   0.1069
 -14.000  -0.3937   0.15038   0.14649  -0.0476  1.0000  0.0419  -1.6601   0.0000   0.1061
 -13.900  -0.3909   0.14933   0.14543  -0.0476  1.0000  0.0423  -1.6360   0.0000   0.1053
 -13.800  -0.3889   0.14824   0.14435  -0.0478  1.0000  0.0427  -1.6213   0.0000   0.1045
 -13.700  -0.3876   0.14713   0.14325  -0.0479  1.0000  0.0432  -1.6134   0.0000   0.1038
 -13.600  -0.3868   0.14600   0.14213  -0.0481  1.0000  0.0436  -1.6112   0.0000   0.1033
 -13.500  -0.3868   0.14487   0.14101  -0.0482  1.0000  0.0441  -1.6143   0.0000   0.1030
 -13.400  -0.3876   0.14373   0.13988  -0.0484  1.0000  0.0446  -1.6242   0.0000   0.1031
 -13.300  -0.3896   0.14255   0.13872  -0.0486  1.0000  0.0452  -1.6462   0.0000   0.1035
 -13.200  -0.3945   0.14122   0.13742  -0.0492  1.0000  0.0457  -1.6984   0.0000   0.1039
 -13.100  -0.4033   0.13972   0.13595  -0.0502  1.0000  0.0460  -1.7901   0.0000   0.1048
 -13.000  -0.4131   0.13821   0.13447  -0.0511  1.0000  0.0461  -1.8871   0.0000   0.1062
 -10.900  -0.4585   0.11667   0.11324  -0.0420  1.0000  0.0522  -2.0062   0.0000   0.1433
 -10.800  -0.4577   0.11600   0.11257  -0.0412  1.0000  0.0525  -1.9791   0.0000   0.1452
 -10.700  -0.4579   0.11522   0.11180  -0.0405  1.0000  0.0528  -1.9613   0.0000   0.1468
 -10.600  -0.4589   0.11435   0.11095  -0.0400  1.0000  0.0531  -1.9508   0.0000   0.1484
 -10.500  -0.4605   0.11341   0.11002  -0.0395  1.0000  0.0534  -1.9464   0.0000   0.1499
 -10.400  -0.4626   0.11239   0.10901  -0.0392  1.0000  0.0538  -1.9476   0.0000   0.1512
 -10.300  -0.4653   0.11128   0.10792  -0.0389  1.0000  0.0542  -1.9539   0.0000   0.1525
 -10.200  -0.4686   0.11009   0.10674  -0.0388  1.0000  0.0546  -1.9657   0.0000   0.1536
 -10.100  -0.4713   0.10857   0.10524  -0.0392  0.9998  0.0552  -1.9850   0.0000   0.1533
 -10.000  -0.4732   0.10563   0.10231  -0.0423  0.9989  0.0563  -2.0469   0.0000   0.1473
  -9.900  -0.4994   0.09647   0.09318  -0.0544  0.9965  0.0572  -2.3990   0.0000   0.1281
  -9.800  -0.5170   0.09107   0.08773  -0.0613  0.9944  0.0573  -2.5738   0.0000   0.1190
  -9.700  -0.5312   0.08786   0.08446  -0.0651  0.9923  0.0573  -2.6773   0.0000   0.1154
  -9.600  -0.5444   0.08552   0.08207  -0.0676  0.9900  0.0573  -2.7546   0.0000   0.1142
  -9.500  -0.4744   0.09316   0.08986  -0.0533  0.9941  0.0585  -2.1987   0.0000   0.1248
  -9.400  -0.4702   0.09175   0.08846  -0.0543  0.9933  0.0590  -2.1770   0.0000   0.1218
  -9.300  -0.4687   0.08988   0.08659  -0.0558  0.9921  0.0596  -2.1780   0.0000   0.1182
  -9.200  -0.4689   0.08731   0.08402  -0.0585  0.9910  0.0602  -2.2036   0.0000   0.1127
  -9.100  -0.4739   0.08393   0.08064  -0.0621  0.9892  0.0606  -2.2627   0.0000   0.1066
  -9.000  -0.4812   0.08072   0.07741  -0.0656  0.9872  0.0610  -2.3271   0.0000   0.1016
  -8.900  -0.4899   0.07781   0.07446  -0.0687  0.9853  0.0614  -2.3909   0.0000   0.0980
  -8.800  -0.5002   0.07559   0.07221  -0.0706  0.9826  0.0616  -2.4458   0.0000   0.0975
  -8.700  -0.5113   0.07376   0.07034  -0.0718  0.9796  0.0618  -2.4953   0.0000   0.0986
  -8.600  -0.5241   0.07112   0.06760  -0.0748  0.9757  0.0623  -2.5790   0.0000   0.0967
  -8.100  -0.5237   0.06230   0.05847  -0.0805  0.9656  0.0652  -2.6048   0.0000   0.0863
  -8.000  -0.5234   0.06134   0.05748  -0.0801  0.9632  0.0658  -2.5879   0.0000   0.0870
  -7.900  -0.5191   0.05990   0.05597  -0.0812  0.9617  0.0670  -2.5752   0.0000   0.0839
  -6.600  -0.4435   0.03712   0.03053  -0.0866  0.9400  0.0518  -2.9309   0.0000   0.0448
  -6.500  -0.4314   0.03597   0.02949  -0.0874  0.9395  0.0524  -2.8621   0.0000   0.0374
  -6.400  -0.4182   0.03544   0.02906  -0.0883  0.9389  0.0536  -2.7749   0.0000   0.0288
  -6.300  -0.4160   0.03575   0.02941  -0.0875  0.9360  0.0591  -2.6820   0.0000   0.0298
  -6.200  -0.4055   0.03570   0.02938  -0.0882  0.9348  0.0652  -2.5818   0.0000   0.0225
  -6.100  -0.3936   0.03553   0.02922  -0.0893  0.9339  0.0716  -2.4884   0.0000   0.0132
  -6.000  -0.3809   0.03528   0.02899  -0.0904  0.9331  0.0784  -2.3988   0.0000   0.0025
  -5.900  -0.3761   0.03513   0.02882  -0.0900  0.9308  0.0846  -2.3414   0.0000   0.0006
  -5.800  -0.3672   0.03488   0.02858  -0.0904  0.9293  0.0916  -2.2721   0.0000  -0.0062
  -5.700  -0.3560   0.03455   0.02828  -0.0912  0.9282  0.0994  -2.1976   0.0000  -0.0162
  -5.600  -0.3439   0.03424   0.02803  -0.0922  0.9274  0.1083  -2.1206   0.0000  -0.0282
  -5.500  -0.3312   0.03392   0.02767  -0.0936  0.9267  0.1219  -2.0457   0.0000  -0.0428
  -5.300  -0.2906   0.02538   0.01738  -0.0885  0.9275  0.0395  -2.7708   0.0000  -0.0666
  -5.200  -0.2767   0.02495   0.01690  -0.0890  0.9269  0.0399  -2.7225   0.0000  -0.0841
  -5.000  -0.2593   0.02440   0.01626  -0.0882  0.9234  0.0407  -2.6463   0.0000  -0.1026
  -4.900  -0.2479   0.02402   0.01588  -0.0883  0.9224  0.0415  -2.5944   0.0000  -0.1193
  -4.800  -0.2352   0.02368   0.01561  -0.0888  0.9215  0.0427  -2.5241   0.0000  -0.1409
  -4.700  -0.2214   0.02342   0.01536  -0.0895  0.9207  0.0442  -2.4564   0.0000  -0.1681
  -4.600  -0.2067   0.02316   0.01505  -0.0902  0.9201  0.0458  -2.3971   0.0000  -0.2010
  -4.500  -0.2008   0.02293   0.01484  -0.0895  0.9177  0.0467  -2.3583   0.0000  -0.2100
  -4.400  -0.1903   0.02263   0.01460  -0.0896  0.9162  0.0480  -2.3012   0.0000  -0.2359
  -4.300  -0.1772   0.02236   0.01434  -0.0902  0.9151  0.0497  -2.2428   0.0000  -0.2743
  -4.200  -0.1629   0.02207   0.01402  -0.0909  0.9143  0.0518  -2.1903   0.0000  -0.3249
  -4.100  -0.1477   0.02168   0.01372  -0.0921  0.9137  0.0545  -2.1373   0.0000  -0.3912
  -4.000  -0.1317   0.02134   0.01339  -0.0933  0.9131  0.0585  -2.0896   0.0000  -0.4779
  -3.900  -0.1268   0.02124   0.01331  -0.0925  0.9101  0.0620  -2.0579   0.0000  -0.4991
  -3.800  -0.1135   0.02097   0.01307  -0.0933  0.9089  0.0688  -2.0113   0.0000  -0.5927
  -3.700  -0.0982   0.02058   0.01276  -0.0945  0.9080  0.0802  -1.9635   0.0000  -0.7365
  -3.600  -0.0800   0.01980   0.01229  -0.0968  0.9075  0.1262  -1.9195   0.0000  -0.9878
  -3.500  -0.0577   0.01762   0.01237  -0.1013  0.9082  0.5835  -1.8473   0.0000  -1.5414
  -3.200  -0.0338   0.01874   0.01357  -0.0980  0.9025  0.6644  -1.6804   0.0000  -2.7133
  -3.100  -0.0237   0.01911   0.01390  -0.0974  0.9008  0.6757  -1.6177   0.0000  -3.9471
  -3.000  -0.0137   0.01955   0.01433  -0.0965  0.8996  0.6831  -1.5543   0.0000  -6.9356
  -2.900  -0.0023   0.01997   0.01472  -0.0958  0.8988  0.6906  -1.4871   0.0000  -42.1653
  -2.800   0.0004   0.02027   0.01499  -0.0943  0.8950  0.6980  -1.4478   0.0000  249.1717
  -2.700   0.0072   0.02071   0.01544  -0.0926  0.8933  0.7016  -1.3939   0.0000  13.4297
  -2.600   0.0196   0.02102   0.01570  -0.0925  0.8922  0.7096  -1.3259   0.0000   5.0559
  -2.500   0.0284   0.02144   0.01614  -0.0910  0.8913  0.7133  -1.2664   0.0000   3.5068
  -2.400   0.0308   0.02173   0.01639  -0.0895  0.8873  0.7204  -1.2291   0.0000   3.2009
  -2.300   0.0360   0.02213   0.01681  -0.0873  0.8856  0.7236  -1.1805   0.0000   2.7153
  -2.200   0.0470   0.02248   0.01714  -0.0867  0.8846  0.7322  -1.1175   0.0000   2.1223
  -2.100   0.0531   0.02290   0.01758  -0.0843  0.8836  0.7366  -1.0661   0.0000   1.8631
  -2.000   0.0526   0.02321   0.01788  -0.0821  0.8792  0.7438  -1.0374   0.0000   1.8351
  -1.900   0.0564   0.02353   0.01822  -0.0795  0.8776  0.7483  -0.9934   0.0000   1.6808
  -1.800   0.0667   0.02376   0.01843  -0.0786  0.8767  0.7562  -0.9347   0.0000   1.4471
  -1.700   0.0751   0.02393   0.01860  -0.0772  0.8759  0.7608  -0.8807   0.0000   1.2923
  -1.500   0.0858   0.02411   0.01874  -0.0750  0.8701  0.7685  -0.7966   0.0000   1.1359
  -1.400   0.0982   0.02407   0.01869  -0.0751  0.8691  0.7705  -0.7369   0.0000   1.0238
  -1.300   0.1128   0.02402   0.01860  -0.0757  0.8685  0.7727  -0.6732   0.0000   0.9286
  -1.200   0.1297   0.02395   0.01848  -0.0770  0.8679  0.7752  -0.6110   0.0000   0.8498
  -1.000   0.1436   0.02397   0.01847  -0.0759  0.8620  0.7795  -0.5348   0.0000   0.7832
  -0.900   0.1568   0.02389   0.01837  -0.0762  0.8611  0.7809  -0.4834   0.0000   0.7396
  -0.800   0.1712   0.02381   0.01826  -0.0767  0.8604  0.7826  -0.4761   0.0000   0.7013
  -0.700   0.1869   0.02373   0.01815  -0.0776  0.8599  0.7845  -0.4843   0.0000   0.6677
  -0.500   0.2053   0.02379   0.01816  -0.0778  0.8540  0.7896  -0.4932   0.0000   0.6306
  -0.400   0.2178   0.02368   0.01803  -0.0780  0.8530  0.7907  -0.5002   0.0000   0.6089
  -0.300   0.2318   0.02356   0.01791  -0.0784  0.8523  0.7920  -0.5079   0.0000   0.5887
  -0.200   0.2469   0.02345   0.01778  -0.0790  0.8518  0.7933  -0.5162   0.0000   0.5705
  -0.100   0.2630   0.02334   0.01765  -0.0800  0.8513  0.7949  -0.5251   0.0000   0.5541
   0.100   0.2785   0.02340   0.01769  -0.0794  0.8448  0.7989  -0.5338   0.0000   0.5346
   0.200   0.2974   0.02331   0.01757  -0.0812  0.8442  0.8008  -0.5441   0.0000   0.5223
   0.300   0.3117   0.02314   0.01739  -0.0816  0.8436  0.8018  -0.5527   0.0000   0.5109
   0.400   0.3267   0.02298   0.01723  -0.0822  0.8432  0.8028  -0.5618   0.0000   0.5005
   0.600   0.3384   0.02303   0.01728  -0.0805  0.8365  0.8058  -0.5700   0.0000   0.4864
   0.700   0.3543   0.02289   0.01714  -0.0814  0.8359  0.8073  -0.5796   0.0000   0.4781
   0.800   0.3712   0.02275   0.01698  -0.0826  0.8353  0.8088  -0.5901   0.0000   0.4705
   0.900   0.3886   0.02259   0.01682  -0.0838  0.8348  0.8102  -0.6011   0.0000   0.4637
   1.000   0.4071   0.02244   0.01665  -0.0854  0.8344  0.8118  -0.6127   0.0000   0.4577
   1.200   0.4201   0.02241   0.01664  -0.0838  0.8276  0.8142  -0.6235   0.0000   0.4471
   1.300   0.4347   0.02222   0.01645  -0.0843  0.8269  0.8152  -0.6342   0.0000   0.4415
   1.400   0.4499   0.02202   0.01625  -0.0850  0.8263  0.8163  -0.6454   0.0000   0.4363
   1.500   0.4656   0.02182   0.01605  -0.0858  0.8258  0.8175  -0.6568   0.0000   0.4314
   1.700   0.4833   0.02184   0.01609  -0.0854  0.8191  0.8204  -0.6719   0.0000   0.4236
   1.800   0.5001   0.02165   0.01590  -0.0865  0.8184  0.8216  -0.6851   0.0000   0.4197
   1.900   0.5178   0.02145   0.01570  -0.0878  0.8178  0.8230  -0.6989   0.0000   0.4163
   2.000   0.5336   0.02121   0.01546  -0.0885  0.8172  0.8240  -0.7118   0.0000   0.4125
   2.100   0.5483   0.02094   0.01520  -0.0890  0.8167  0.8248  -0.7253   0.0000   0.4088
   2.300   0.5637   0.02088   0.01518  -0.0878  0.8097  0.8270  -0.7430   0.0000   0.4021
   2.400   0.5793   0.02063   0.01494  -0.0885  0.8089  0.8280  -0.7573   0.0000   0.3990
   2.500   0.5953   0.02037   0.01470  -0.0892  0.8082  0.8289  -0.7719   0.0000   0.3961
   2.600   0.6113   0.02012   0.01445  -0.0900  0.8075  0.8300  -0.7865   0.0000   0.3934
   2.700   0.6155   0.02027   0.01462  -0.0891  0.8017  0.8314  -0.7940   0.0000   0.3907
   2.800   0.6321   0.02001   0.01437  -0.0900  0.8006  0.8325  -0.8108   0.0000   0.3883
   2.900   0.6494   0.01973   0.01412  -0.0911  0.7997  0.8335  -0.8291   0.0000   0.3861
   3.000   0.6672   0.01947   0.01385  -0.0923  0.7989  0.8345  -0.8541   0.0000   0.3841
   3.200   0.6845   0.01924   0.01368  -0.0913  0.7921  0.8364  -0.8900   0.0000   0.3788
   3.300   0.6995   0.01894   0.01340  -0.0918  0.7908  0.8373  -0.9171   0.0000   0.3766
   3.400   0.7154   0.01864   0.01311  -0.0924  0.7898  0.8382  -0.9471   0.0000   0.3745
   3.600   0.7361   0.01842   0.01295  -0.0921  0.7828  0.8401  -0.9979   0.0000   0.3702
   3.700   0.7522   0.01812   0.01267  -0.0929  0.7813  0.8409  -1.0348   0.0000   0.3685
   3.800   0.7690   0.01782   0.01238  -0.0938  0.7801  0.8417  -1.0765   0.0000   0.3669
   3.900   0.7761   0.01786   0.01246  -0.0932  0.7747  0.8429  -1.1041   0.0000   0.3649
   4.000   0.7916   0.01762   0.01224  -0.0940  0.7725  0.8438  -1.1458   0.0000   0.3634
   4.100   0.8088   0.01735   0.01198  -0.0950  0.7709  0.8447  -1.1967   0.0000   0.3621
   4.200   0.8173   0.01732   0.01198  -0.0946  0.7659  0.8457  -1.2344   0.0000   0.3602
   4.300   0.8305   0.01704   0.01174  -0.0947  0.7629  0.8464  -1.2824   0.0000   0.3585
   4.400   0.8466   0.01667   0.01138  -0.0953  0.7605  0.8472  -1.3369   0.0000   0.3569
   4.500   0.8535   0.01659   0.01133  -0.0945  0.7541  0.8481  -1.3729   0.0000   0.3549
   4.600   0.8696   0.01621   0.01096  -0.0950  0.7506  0.8489  -1.4287   0.0000   0.3534
   4.700   0.8775   0.01610   0.01088  -0.0944  0.7438  0.8499  -1.4724   0.0000   0.3515
   4.800   0.8895   0.01589   0.01069  -0.0944  0.7382  0.8508  -1.5329   0.0000   0.3500
   4.900   0.9019   0.01569   0.01050  -0.0944  0.7324  0.8517  -1.5950   0.0000   0.3485
   5.000   0.9121   0.01558   0.01043  -0.0942  0.7256  0.8526  -1.6515   0.0000   0.3470
   5.100   0.9256   0.01540   0.01025  -0.0945  0.7196  0.8534  -1.7178   0.0000   0.3457
   5.200   0.9365   0.01530   0.01017  -0.0945  0.7122  0.8543  -1.7777   0.0000   0.3443
   5.300   0.9473   0.01524   0.01012  -0.0944  0.7042  0.8552  -1.8377   0.0000   0.3430
   5.400   0.9591   0.01515   0.01004  -0.0945  0.6961  0.8561  -1.9028   0.0000   0.3418
   5.500   0.9693   0.01503   0.00993  -0.0942  0.6879  0.8568  -1.9678   0.0000   0.3403
   5.600   0.9795   0.01493   0.00983  -0.0939  0.6788  0.8576  -2.0333   0.0000   0.3388
   5.700   0.9893   0.01487   0.00976  -0.0935  0.6687  0.8584  -2.0982   0.0000   0.3374
   5.800   0.9986   0.01483   0.00973  -0.0931  0.6577  0.8591  -2.1620   0.0000   0.3360
   5.900   1.0077   0.01482   0.00971  -0.0927  0.6457  0.8599  -2.2257   0.0000   0.3346
   6.000   1.0168   0.01482   0.00969  -0.0923  0.6326  0.8606  -2.2900   0.0000   0.3333
   6.100   1.0259   0.01485   0.00969  -0.0919  0.6183  0.8615  -2.3549   0.0000   0.3320
   6.200   1.0350   0.01490   0.00968  -0.0915  0.6030  0.8623  -2.4204   0.0000   0.3307
   6.300   1.0432   0.01498   0.00972  -0.0910  0.5861  0.8633  -2.4833   0.0000   0.3294
   6.400   1.0514   0.01510   0.00977  -0.0904  0.5683  0.8642  -2.5466   0.0000   0.3281
   6.500   1.0588   0.01527   0.00985  -0.0898  0.5485  0.8650  -2.6080   0.0000   0.3268
   6.600   1.0655   0.01547   0.00996  -0.0891  0.5272  0.8658  -2.6674   0.0000   0.3254
   6.700   1.0711   0.01569   0.01009  -0.0882  0.5051  0.8665  -2.7233   0.0000   0.3240
   6.800   1.0751   0.01592   0.01021  -0.0870  0.4826  0.8672  -2.7742   0.0000   0.3225
   6.900   1.0784   0.01619   0.01037  -0.0857  0.4595  0.8679  -2.8229   0.0000   0.3209
   7.000   1.0807   0.01649   0.01055  -0.0843  0.4362  0.8687  -2.8686   0.0000   0.3192
   7.100   1.0822   0.01680   0.01075  -0.0827  0.4130  0.8696  -2.9122   0.0000   0.3175
   7.200   1.0833   0.01715   0.01098  -0.0811  0.3898  0.8706  -2.9574   0.0000   0.3159
   7.300   1.0848   0.01754   0.01125  -0.0797  0.3654  0.8715  -3.0040   0.0000   0.3143
   7.400   1.0868   0.01799   0.01156  -0.0784  0.3403  0.8724  -3.0522   0.0000   0.3129
   7.500   1.0888   0.01849   0.01192  -0.0772  0.3150  0.8733  -3.1004   0.0000   0.3115
   7.600   1.0910   0.01901   0.01230  -0.0761  0.2892  0.8740  -3.1493   0.0000   0.3102
   7.700   1.0930   0.01957   0.01271  -0.0750  0.2637  0.8748  -3.1973   0.0000   0.3090
   7.800   1.0951   0.02014   0.01315  -0.0740  0.2375  0.8755  -3.2456   0.0000   0.3077
   7.900   1.0970   0.02076   0.01360  -0.0730  0.2121  0.8763  -3.2927   0.0000   0.3066
   8.000   1.0984   0.02133   0.01404  -0.0718  0.1881  0.8770  -3.3376   0.0000   0.3053
   8.100   1.0998   0.02192   0.01449  -0.0706  0.1662  0.8778  -3.3823   0.0000   0.3040
   8.200   1.1015   0.02253   0.01496  -0.0695  0.1470  0.8786  -3.4275   0.0000   0.3027
   8.300   1.1036   0.02313   0.01545  -0.0685  0.1311  0.8794  -3.4737   0.0000   0.3016
   8.400   1.1061   0.02373   0.01595  -0.0675  0.1184  0.8802  -3.5207   0.0000   0.3004
   8.500   1.1090   0.02432   0.01646  -0.0667  0.1076  0.8809  -3.5691   0.0000   0.2993
   8.600   1.1120   0.02491   0.01698  -0.0658  0.0992  0.8816  -3.6178   0.0000   0.2983
   8.700   1.1153   0.02549   0.01750  -0.0650  0.0920  0.8823  -3.6671   0.0000   0.2972
   8.800   1.1191   0.02604   0.01802  -0.0643  0.0857  0.8830  -3.7178   0.0000   0.2962
   8.900   1.1233   0.02657   0.01853  -0.0636  0.0800  0.8838  -3.7700   0.0000   0.2953
   9.000   1.1277   0.02711   0.01906  -0.0629  0.0751  0.8846  -3.8222   0.0000   0.2943
   9.100   1.1317   0.02768   0.01961  -0.0623  0.0711  0.8853  -3.8729   0.0000   0.2934
   9.200   1.1356   0.02825   0.02015  -0.0616  0.0677  0.8860  -3.9249   0.0000   0.2925
   9.300   1.1398   0.02875   0.02067  -0.0609  0.0643  0.8867  -3.9744   0.0000   0.2915
   9.400   1.1430   0.02932   0.02120  -0.0601  0.0618  0.8874  -4.0249   0.0000   0.2905
   9.500   1.1478   0.02981   0.02173  -0.0595  0.0589  0.8880  -4.0758   0.0000   0.2896
   9.600   1.1516   0.03036   0.02226  -0.0588  0.0568  0.8887  -4.1285   0.0000   0.2887
   9.700   1.1558   0.03092   0.02284  -0.0581  0.0546  0.8893  -4.1770   0.0000   0.2878
   9.800   1.1605   0.03144   0.02338  -0.0575  0.0527  0.8899  -4.2283   0.0000   0.2869
   9.900   1.1640   0.03206   0.02396  -0.0569  0.0512  0.8906  -4.2849   0.0000   0.2861
  10.000   1.1690   0.03262   0.02456  -0.0562  0.0496  0.8912  -4.3406   0.0000   0.2852
  10.100   1.1741   0.03314   0.02512  -0.0557  0.0479  0.8919  -4.4008   0.0000   0.2844
  10.200   1.1788   0.03371   0.02566  -0.0552  0.0466  0.8927  -4.4637   0.0000   0.2836
  10.300   1.1835   0.03434   0.02627  -0.0546  0.0454  0.8934  -4.5230   0.0000   0.2828
  10.400   1.1895   0.03484   0.02684  -0.0542  0.0439  0.8942  -4.5837   0.0000   0.2820
  10.500   1.1951   0.03537   0.02738  -0.0538  0.0427  0.8949  -4.6498   0.0000   0.2813
  10.600   1.2002   0.03593   0.02789  -0.0533  0.0416  0.8956  -4.7180   0.0000   0.2806
  10.700   1.2058   0.03650   0.02848  -0.0527  0.0406  0.8963  -4.7790   0.0000   0.2798
  10.800   1.2117   0.03701   0.02907  -0.0522  0.0395  0.8970  -4.8384   0.0000   0.2790
  10.900   1.2179   0.03754   0.02963  -0.0518  0.0386  0.8977  -4.9023   0.0000   0.2783
  11.000   1.2243   0.03806   0.03015  -0.0514  0.0378  0.8984  -4.9715   0.0000   0.2776
  11.100   1.2319   0.03861   0.03065  -0.0511  0.0371  0.8991  -5.0482   0.0000   0.2770
  11.200   1.2408   0.03921   0.03125  -0.0509  0.0364  0.8997  -5.1192   0.0000   0.2763
  11.300   1.2479   0.03979   0.03193  -0.0504  0.0357  0.9004  -5.1771   0.0000   0.2756
  11.400   1.2557   0.04037   0.03257  -0.0501  0.0350  0.9011  -5.2409   0.0000   0.2750
  11.500   1.2635   0.04093   0.03317  -0.0498  0.0344  0.9018  -5.3105   0.0000   0.2744
  11.600   1.2711   0.04148   0.03375  -0.0496  0.0337  0.9026  -5.3840   0.0000   0.2738
  11.700   1.2796   0.04203   0.03427  -0.0495  0.0331  0.9034  -5.4676   0.0000   0.2733
  11.900   1.2961   0.04339   0.03571  -0.0490  0.0319  0.9050  -5.6178   0.0000   0.2722
  12.000   1.3006   0.04409   0.03655  -0.0484  0.0314  0.9059  -5.6742   0.0000   0.2714
  12.100   1.3059   0.04478   0.03734  -0.0479  0.0309  0.9067  -5.7381   0.0000   0.2707
  12.200   1.3120   0.04547   0.03809  -0.0475  0.0304  0.9076  -5.8089   0.0000   0.2701
  12.300   1.3192   0.04615   0.03883  -0.0472  0.0300  0.9085  -5.8857   0.0000   0.2695
  12.400   1.3273   0.04683   0.03953  -0.0470  0.0296  0.9094  -5.9702   0.0000   0.2690
  12.500   1.3354   0.04754   0.04027  -0.0468  0.0292  0.9102  -6.0548   0.0000   0.2685
  12.600   1.3455   0.04831   0.04104  -0.0469  0.0289  0.9110  -6.1517   0.0000   0.2682
  12.700   1.3616   0.04944   0.04215  -0.0475  0.0285  0.9118  -6.2668   0.0000   0.2681
  12.800   1.3623   0.05045   0.04332  -0.0466  0.0283  0.9126  -6.2959   0.0000   0.2673
  12.900   1.3631   0.05149   0.04452  -0.0457  0.0282  0.9134  -6.3237   0.0000   0.2664
  13.000   1.3636   0.05259   0.04578  -0.0449  0.0281  0.9142  -6.3496   0.0000   0.2656
  13.100   1.3639   0.05375   0.04709  -0.0440  0.0280  0.9152  -6.3731   0.0000   0.2648
  13.200   1.3636   0.05496   0.04845  -0.0431  0.0279  0.9162  -6.3937   0.0000   0.2640
  13.300   1.3629   0.05622   0.04985  -0.0423  0.0278  0.9172  -6.4111   0.0000   0.2632
  13.400   1.3613   0.05752   0.05130  -0.0414  0.0277  0.9182  -6.4247   0.0000   0.2625
  13.500   1.3590   0.05886   0.05278  -0.0405  0.0276  0.9193  -6.4346   0.0000   0.2617
  13.600   1.3561   0.06025   0.05431  -0.0397  0.0276  0.9204  -6.4413   0.0000   0.2610
  13.700   1.3525   0.06166   0.05586  -0.0388  0.0275  0.9214  -6.4450   0.0000   0.2603
  13.800   1.3483   0.06310   0.05744  -0.0380  0.0274  0.9225  -6.4459   0.0000   0.2595
  13.900   1.3436   0.06459   0.05906  -0.0372  0.0273  0.9236  -6.4441   0.0000   0.2589
  14.000   1.3384   0.06613   0.06073  -0.0364  0.0273  0.9247  -6.4398   0.0000   0.2582
  14.100   1.3328   0.06772   0.06246  -0.0357  0.0272  0.9258  -6.4330   0.0000   0.2576
  14.200   1.3268   0.06938   0.06423  -0.0351  0.0272  0.9269  -6.4237   0.0000   0.2571
  14.300   1.3203   0.07109   0.06607  -0.0346  0.0271  0.9282  -6.4118   0.0000   0.2566
  14.400   1.3134   0.07284   0.06795  -0.0341  0.0271  0.9295  -6.3974   0.0000   0.2562
  14.500   1.3061   0.07464   0.06987  -0.0336  0.0271  0.9309  -6.3803   0.0000   0.2559
  14.600   1.2984   0.07652   0.07186  -0.0333  0.0270  0.9325  -6.3605   0.0000   0.2556
  14.700   1.2904   0.07846   0.07392  -0.0331  0.0270  0.9342  -6.3381   0.0000   0.2553
  14.900   1.2734   0.08256   0.07826  -0.0329  0.0270  0.9388  -6.2841   0.0000   0.2551
  15.000   1.2640   0.08472   0.08053  -0.0329  0.0271  0.9423  -6.2510   0.0000   0.2552
  15.100   1.2543   0.08691   0.08284  -0.0331  0.0271  0.9487  -6.2153   0.0000   0.2553
  15.200   1.2439   0.08900   0.08503  -0.0332  0.0272  0.9897  -6.1766   0.0000   0.2554
  15.300   1.2344   0.09163   0.08777  -0.0340  0.0272  1.0000  -6.1356   0.0000   0.2560
  15.400   1.2248   0.09432   0.09056  -0.0348  0.0273  1.0000  -6.0929   0.0000   0.2567
  15.500   1.2151   0.09711   0.09344  -0.0359  0.0274  1.0000  -6.0483   0.0000   0.2576
  15.600   1.2055   0.09999   0.09642  -0.0371  0.0274  1.0000  -6.0019   0.0000   0.2586
  15.700   1.1959   0.10298   0.09950  -0.0384  0.0275  1.0000  -5.9541   0.0000   0.2598
  15.800   1.1865   0.10605   0.10265  -0.0399  0.0276  1.0000  -5.9050   0.0000   0.2611
  15.900   1.1772   0.10920   0.10588  -0.0415  0.0277  1.0000  -5.8551   0.0000   0.2625
  16.000   1.1681   0.11241   0.10917  -0.0433  0.0278  1.0000  -5.8045   0.0000   0.2641
  16.100   1.1593   0.11567   0.11250  -0.0452  0.0279  1.0000  -5.7536   0.0000   0.2658
  16.200   1.1509   0.11897   0.11587  -0.0472  0.0280  1.0000  -5.7027   0.0000   0.2676
  16.300   1.1428   0.12230   0.11926  -0.0492  0.0280  1.0000  -5.6522   0.0000   0.2695
  16.400   1.1353   0.12564   0.12265  -0.0513  0.0281  1.0000  -5.6026   0.0000   0.2714
  16.500   1.1283   0.12896   0.12602  -0.0534  0.0282  1.0000  -5.5545   0.0000   0.2734
  16.600   1.1219   0.13223   0.12934  -0.0554  0.0283  1.0000  -5.5084   0.0000   0.2753
  16.700   1.1162   0.13543   0.13258  -0.0575  0.0284  1.0000  -5.4652   0.0000   0.2772
  16.800   1.1114   0.13853   0.13570  -0.0594  0.0284  1.0000  -5.4260   0.0000   0.2790
  16.900   1.1074   0.14146   0.13866  -0.0611  0.0285  1.0000  -5.3923   0.0000   0.2806
  19.200   0.6527   0.19445   0.19201  -0.0736  0.0482  0.9246  -1.3523   0.0000   0.3450
  19.300   0.6547   0.19557   0.19315  -0.0741  0.0475  0.9258  -1.3594   0.0000   0.3452
  19.400   0.6574   0.19662   0.19421  -0.0744  0.0469  0.9272  -1.3753   0.0000   0.3451
  19.500   0.6611   0.19762   0.19522  -0.0746  0.0465  0.9286  -1.4030   0.0000   0.3445
  19.600   0.6664   0.19855   0.19617  -0.0743  0.0461  0.9305  -1.4504   0.0000   0.3430
  19.700   0.6739   0.19978   0.19742  -0.0737  0.0459  0.9329  -1.5126   0.0000   0.3406
  19.800   0.6647   0.20184   0.19947  -0.0762  0.0456  0.9331  -1.3822   0.0000   0.3460
  19.900   0.6615   0.20370   0.20133  -0.0777  0.0447  0.9341  -1.3125   0.0000   0.3488


