xflr5 v6.32

 Calculated polar for: foil1 modified

 1 1 Reynolds number fixed          Mach number fixed         

 xtrf =   1.000 (top)        1.000 (bottom)
 Mach =   0.000     Re =    35.000 e 6     Ncrit =   9.000

  alpha     CL        CD       CDp       Cm    Top Xtr Bot Xtr   Cpmin    Chinge    XCp    
 ------- -------- --------- --------- -------- ------- ------- -------- --------- ---------
 -15.000  -1.2269   0.01116   0.00768  -0.0968  0.8436  0.0041  -17.1107   0.0000   0.1523
 -14.900  -1.2163   0.01103   0.00755  -0.0970  0.8426  0.0041  -16.9235   0.0000   0.1517
 -14.800  -1.2056   0.01091   0.00742  -0.0972  0.8422  0.0041  -16.7367   0.0000   0.1509
 -14.700  -1.1949   0.01079   0.00730  -0.0974  0.8416  0.0041  -16.5505   0.0000   0.1502
 -14.600  -1.1842   0.01067   0.00718  -0.0975  0.8408  0.0041  -16.3649   0.0000   0.1495
 -14.500  -1.1734   0.01056   0.00706  -0.0977  0.8398  0.0041  -16.1800   0.0000   0.1487
 -14.400  -1.1627   0.01044   0.00695  -0.0979  0.8388  0.0041  -15.9958   0.0000   0.1479
 -14.300  -1.1519   0.01033   0.00683  -0.0981  0.8376  0.0041  -15.8123   0.0000   0.1471
 -14.200  -1.1411   0.01023   0.00672  -0.0983  0.8362  0.0041  -15.6295   0.0000   0.1463
 -14.100  -1.1302   0.01012   0.00661  -0.0985  0.8346  0.0041  -15.4472   0.0000   0.1455
 -14.000  -1.1193   0.01001   0.00650  -0.0987  0.8339  0.0041  -15.2653   0.0000   0.1446
 -13.900  -1.1084   0.00990   0.00639  -0.0989  0.8334  0.0041  -15.0840   0.0000   0.1437
 -13.800  -1.0974   0.00980   0.00629  -0.0991  0.8328  0.0041  -14.9034   0.0000   0.1427
 -13.700  -1.0864   0.00970   0.00618  -0.0993  0.8320  0.0041  -14.7236   0.0000   0.1418
 -13.600  -1.0754   0.00960   0.00608  -0.0994  0.8311  0.0041  -14.5446   0.0000   0.1408
 -13.500  -1.0644   0.00950   0.00598  -0.0996  0.8300  0.0041  -14.3664   0.0000   0.1398
 -13.400  -1.0533   0.00940   0.00588  -0.0998  0.8289  0.0041  -14.1891   0.0000   0.1388
 -13.300  -1.0423   0.00931   0.00578  -0.1000  0.8275  0.0041  -14.0125   0.0000   0.1377
 -13.200  -1.0312   0.00921   0.00569  -0.1002  0.8260  0.0041  -13.8366   0.0000   0.1366
 -13.100  -1.0201   0.00912   0.00559  -0.1004  0.8253  0.0041  -13.6612   0.0000   0.1355
 -13.000  -1.0089   0.00903   0.00550  -0.1006  0.8248  0.0041  -13.4865   0.0000   0.1343
 -12.900  -0.9977   0.00893   0.00540  -0.1008  0.8243  0.0041  -13.3126   0.0000   0.1331
 -12.800  -0.9873   0.00866   0.00512  -0.1010  0.8235  0.0051  -13.2281   0.0000   0.1320
 -12.700  -0.9761   0.00856   0.00503  -0.1013  0.8226  0.0052  -13.0547   0.0000   0.1307
 -12.600  -0.9649   0.00847   0.00494  -0.1015  0.8216  0.0052  -12.8818   0.0000   0.1294
 -12.500  -0.9537   0.00839   0.00486  -0.1017  0.8205  0.0053  -12.7096   0.0000   0.1281
 -12.400  -0.9424   0.00831   0.00478  -0.1019  0.8192  0.0053  -12.5380   0.0000   0.1267
 -12.300  -0.9311   0.00823   0.00470  -0.1021  0.8176  0.0054  -12.3671   0.0000   0.1253
 -12.200  -0.9198   0.00815   0.00462  -0.1023  0.8165  0.0054  -12.1968   0.0000   0.1238
 -12.100  -0.9084   0.00807   0.00454  -0.1025  0.8160  0.0054  -12.0271   0.0000   0.1223
 -12.000  -0.8970   0.00799   0.00447  -0.1027  0.8154  0.0055  -11.8583   0.0000   0.1207
 -11.900  -0.8857   0.00792   0.00440  -0.1029  0.8146  0.0055  -11.6904   0.0000   0.1191
 -11.800  -0.8743   0.00785   0.00433  -0.1031  0.8136  0.0055  -11.5236   0.0000   0.1175
 -11.700  -0.8629   0.00778   0.00426  -0.1033  0.8124  0.0055  -11.3579   0.0000   0.1158
 -11.600  -0.8515   0.00771   0.00419  -0.1035  0.8110  0.0056  -11.1932   0.0000   0.1140
 -11.500  -0.8401   0.00764   0.00412  -0.1037  0.8094  0.0056  -11.0294   0.0000   0.1122
 -11.400  -0.8287   0.00758   0.00405  -0.1039  0.8077  0.0056  -10.8666   0.0000   0.1104
 -11.300  -0.8172   0.00751   0.00398  -0.1042  0.8071  0.0056  -10.7043   0.0000   0.1085
 -11.200  -0.8057   0.00744   0.00392  -0.1044  0.8065  0.0056  -10.5430   0.0000   0.1065
 -11.100  -0.7942   0.00737   0.00385  -0.1046  0.8056  0.0056  -10.3828   0.0000   0.1044
 -11.000  -0.7827   0.00731   0.00379  -0.1048  0.8045  0.0056  -10.2237   0.0000   0.1023
 -10.900  -0.7712   0.00725   0.00373  -0.1050  0.8031  0.0057  -10.0657   0.0000   0.1001
 -10.800  -0.7598   0.00719   0.00367  -0.1052  0.8016  0.0057  -9.9089   0.0000   0.0978
 -10.700  -0.7483   0.00713   0.00360  -0.1054  0.7996  0.0057  -9.7530   0.0000   0.0955
 -10.600  -0.7367   0.00707   0.00354  -0.1056  0.7982  0.0057  -9.5979   0.0000   0.0931
 -10.500  -0.7252   0.00701   0.00348  -0.1058  0.7976  0.0057  -9.4436   0.0000   0.0906
 -10.400  -0.7136   0.00694   0.00342  -0.1061  0.7967  0.0057  -9.2903   0.0000   0.0880
 -10.300  -0.7020   0.00689   0.00337  -0.1063  0.7956  0.0057  -9.1382   0.0000   0.0853
 -10.200  -0.6905   0.00683   0.00331  -0.1065  0.7942  0.0057  -8.9873   0.0000   0.0825
 -10.100  -0.6790   0.00677   0.00325  -0.1067  0.7927  0.0057  -8.8375   0.0000   0.0797
 -10.000  -0.6674   0.00672   0.00320  -0.1069  0.7908  0.0057  -8.6888   0.0000   0.0767
  -9.900  -0.6558   0.00666   0.00314  -0.1071  0.7891  0.0057  -8.5408   0.0000   0.0736
  -9.800  -0.6442   0.00661   0.00309  -0.1073  0.7885  0.0057  -8.3937   0.0000   0.0703
  -9.700  -0.6326   0.00655   0.00303  -0.1076  0.7876  0.0057  -8.2476   0.0000   0.0670
  -9.600  -0.6209   0.00650   0.00298  -0.1078  0.7863  0.0057  -8.1028   0.0000   0.0635
  -9.500  -0.6094   0.00645   0.00293  -0.1080  0.7846  0.0057  -7.9592   0.0000   0.0599
  -9.400  -0.5978   0.00640   0.00288  -0.1082  0.7827  0.0057  -7.8169   0.0000   0.0562
  -9.300  -0.5862   0.00635   0.00283  -0.1084  0.7803  0.0058  -7.6756   0.0000   0.0523
  -9.200  -0.5745   0.00630   0.00277  -0.1086  0.7792  0.0058  -7.5349   0.0000   0.0482
  -9.100  -0.5629   0.00624   0.00272  -0.1088  0.7782  0.0058  -7.3952   0.0000   0.0439
  -9.000  -0.5512   0.00620   0.00267  -0.1090  0.7767  0.0058  -7.2569   0.0000   0.0394
  -8.900  -0.5396   0.00615   0.00263  -0.1092  0.7748  0.0058  -7.1198   0.0000   0.0348
  -8.800  -0.5280   0.00611   0.00258  -0.1094  0.7725  0.0058  -6.9840   0.0000   0.0300
  -8.700  -0.5164   0.00606   0.00253  -0.1096  0.7701  0.0058  -6.8490   0.0000   0.0249
  -8.600  -0.5046   0.00601   0.00248  -0.1099  0.7693  0.0058  -6.7148   0.0000   0.0195
  -8.500  -0.4930   0.00596   0.00244  -0.1101  0.7679  0.0058  -6.5818   0.0000   0.0139
  -8.400  -0.4813   0.00592   0.00239  -0.1103  0.7658  0.0058  -6.4501   0.0000   0.0081
  -8.300  -0.4697   0.00588   0.00235  -0.1105  0.7632  0.0058  -6.3199   0.0000   0.0020
  -8.200  -0.4581   0.00584   0.00231  -0.1107  0.7605  0.0058  -6.1905   0.0000  -0.0045
  -8.100  -0.4463   0.00579   0.00226  -0.1109  0.7594  0.0058  -6.0618   0.0000  -0.0114
  -8.000  -0.4346   0.00575   0.00222  -0.1111  0.7577  0.0058  -5.9344   0.0000  -0.0186
  -7.900  -0.4230   0.00571   0.00218  -0.1113  0.7555  0.0058  -5.8084   0.0000  -0.0262
  -7.800  -0.4113   0.00568   0.00214  -0.1115  0.7529  0.0058  -5.6836   0.0000  -0.0341
  -7.700  -0.3996   0.00564   0.00209  -0.1117  0.7506  0.0058  -5.5597   0.0000  -0.0427
  -7.600  -0.3879   0.00559   0.00205  -0.1119  0.7496  0.0058  -5.4365   0.0000  -0.0518
  -7.500  -0.3762   0.00555   0.00201  -0.1121  0.7479  0.0058  -5.3147   0.0000  -0.0614
  -7.400  -0.3645   0.00552   0.00198  -0.1123  0.7454  0.0058  -5.1943   0.0000  -0.0716
  -7.300  -0.3529   0.00549   0.00194  -0.1125  0.7422  0.0058  -5.0753   0.0000  -0.0824
  -7.200  -0.3411   0.00545   0.00190  -0.1127  0.7402  0.0058  -4.9568   0.0000  -0.0942
  -7.100  -0.3294   0.00541   0.00186  -0.1129  0.7382  0.0058  -4.8395   0.0000  -0.1067
  -7.000  -0.3178   0.00538   0.00183  -0.1131  0.7350  0.0058  -4.7239   0.0000  -0.1200
  -6.900  -0.3062   0.00535   0.00179  -0.1133  0.7311  0.0058  -4.6094   0.0000  -0.1343
  -6.800  -0.2944   0.00532   0.00176  -0.1135  0.7292  0.0058  -4.4955   0.0000  -0.1500
  -6.700  -0.2827   0.00529   0.00172  -0.1137  0.7262  0.0058  -4.3831   0.0000  -0.1669
  -6.600  -0.2711   0.00526   0.00169  -0.1139  0.7222  0.0058  -4.2722   0.0000  -0.1850
  -6.500  -0.2594   0.00523   0.00166  -0.1141  0.7198  0.0058  -4.1617   0.0000  -0.2051
  -6.400  -0.2477   0.00520   0.00162  -0.1143  0.7169  0.0058  -4.0526   0.0000  -0.2270
  -6.300  -0.2362   0.00518   0.00160  -0.1145  0.7121  0.0058  -3.9453   0.0000  -0.2506
  -6.200  -0.2245   0.00515   0.00156  -0.1147  0.7090  0.0058  -3.8384   0.0000  -0.2772
  -6.100  -0.2128   0.00513   0.00153  -0.1148  0.7053  0.0058  -3.7330   0.0000  -0.3065
  -6.000  -0.2012   0.00511   0.00151  -0.1150  0.7006  0.0058  -3.6289   0.0000  -0.3389
  -5.900  -0.1895   0.00508   0.00147  -0.1152  0.6983  0.0058  -3.5253   0.0000  -0.3760
  -5.800  -0.1779   0.00506   0.00145  -0.1154  0.6941  0.0058  -3.4234   0.0000  -0.4174
  -5.700  -0.1663   0.00504   0.00142  -0.1156  0.6896  0.0058  -3.3226   0.0000  -0.4646
  -5.600  -0.1546   0.00502   0.00139  -0.1158  0.6861  0.0058  -3.2227   0.0000  -0.5193
  -5.500  -0.1431   0.00501   0.00137  -0.1159  0.6803  0.0058  -3.1247   0.0000  -0.5817
  -5.400  -0.1314   0.00499   0.00134  -0.1161  0.6765  0.0058  -3.0270   0.0000  -0.6564
  -5.300  -0.1199   0.00498   0.00132  -0.1162  0.6706  0.0058  -2.9313   0.0000  -0.7440
  -5.200  -0.1082   0.00496   0.00130  -0.1164  0.6665  0.0058  -2.8360   0.0000  -0.8522
  -5.100  -0.0967   0.00494   0.00126  -0.1166  0.6603  0.0069  -2.7505   0.0000  -0.9839
  -5.000  -0.0851   0.00492   0.00124  -0.1168  0.6553  0.0072  -2.6604   0.0000  -1.1537
  -4.900  -0.0737   0.00491   0.00122  -0.1169  0.6481  0.0074  -2.5773   0.0000  -1.3724
  -4.800  -0.0621   0.00490   0.00119  -0.1171  0.6427  0.0076  -2.4942   0.0000  -1.6768
  -4.700  -0.0506   0.00490   0.00118  -0.1172  0.6358  0.0077  -2.4124   0.0000  -2.1150
  -4.600  -0.0391   0.00489   0.00116  -0.1173  0.6302  0.0078  -2.3313   0.0000  -2.8152
  -4.500  -0.0275   0.00488   0.00114  -0.1175  0.6243  0.0078  -2.2510   0.0000  -4.1055
  -4.400  -0.0161   0.00488   0.00113  -0.1176  0.6177  0.0079  -2.1720   0.0000  -7.2202
  -4.300  -0.0045   0.00488   0.00111  -0.1178  0.6118  0.0079  -2.0937   0.0000  -26.5190
  -4.200   0.0070   0.00488   0.00110  -0.1179  0.6049  0.0079  -2.0166   0.0000  17.5057
  -4.000   0.0300   0.00488   0.00107  -0.1182  0.5915  0.0080  -1.8653   0.0000   4.2628
  -3.900   0.0413   0.00489   0.00106  -0.1183  0.5826  0.0084  -1.7929   0.0000   3.1626
  -3.800   0.0527   0.00490   0.00105  -0.1185  0.5747  0.0090  -1.7205   0.0000   2.5331
  -3.700   0.0641   0.00490   0.00104  -0.1186  0.5667  0.0094  -1.6488   0.0000   2.1271
  -3.600   0.0755   0.00491   0.00103  -0.1187  0.5583  0.0098  -1.5780   0.0000   1.8451
  -3.500   0.0869   0.00492   0.00102  -0.1188  0.5505  0.0102  -1.5080   0.0000   1.6369
  -3.400   0.0984   0.00491   0.00101  -0.1190  0.5437  0.0113  -1.4387   0.0000   1.4755
  -3.300   0.1098   0.00491   0.00099  -0.1191  0.5356  0.0128  -1.3708   0.0000   1.3489
  -3.200   0.1213   0.00492   0.00099  -0.1193  0.5291  0.0138  -1.3035   0.0000   1.2457
  -3.100   0.1329   0.00491   0.00097  -0.1194  0.5233  0.0156  -1.2370   0.0000   1.1598
  -3.000   0.1445   0.00491   0.00096  -0.1196  0.5193  0.0162  -1.1710   0.0000   1.0874
  -2.900   0.1561   0.00490   0.00095  -0.1197  0.5148  0.0179  -1.1063   0.0000   1.0258
  -2.800   0.1678   0.00488   0.00094  -0.1199  0.5126  0.0193  -1.0419   0.0000   0.9722
  -2.600   0.1913   0.00486   0.00092  -0.1203  0.5078  0.0227  -0.9164   0.0000   0.8850
  -2.500   0.2029   0.00485   0.00091  -0.1205  0.5044  0.0253  -0.8553   0.0000   0.8491
  -2.400   0.2147   0.00483   0.00089  -0.1207  0.5022  0.0283  -0.7949   0.0000   0.8169
  -2.300   0.2264   0.00481   0.00088  -0.1209  0.4997  0.0315  -0.7356   0.0000   0.7881
  -2.200   0.2380   0.00480   0.00088  -0.1210  0.4951  0.0350  -0.6776   0.0000   0.7624
  -2.100   0.2495   0.00480   0.00087  -0.1212  0.4895  0.0382  -0.6205   0.0000   0.7390
  -2.000   0.2609   0.00481   0.00087  -0.1213  0.4824  0.0414  -0.5649   0.0000   0.7179
  -1.900   0.2724   0.00481   0.00086  -0.1214  0.4761  0.0461  -0.5451   0.0000   0.6984
  -1.800   0.2838   0.00482   0.00086  -0.1216  0.4671  0.0516  -0.5513   0.0000   0.6807
  -1.700   0.2950   0.00484   0.00087  -0.1217  0.4575  0.0573  -0.5571   0.0000   0.6644
  -1.600   0.3063   0.00486   0.00087  -0.1218  0.4478  0.0624  -0.5633   0.0000   0.6493
  -1.400   0.3290   0.00487   0.00087  -0.1220  0.4299  0.0784  -0.5696   0.0000   0.6222
  -1.300   0.3402   0.00488   0.00088  -0.1221  0.4201  0.0872  -0.5757   0.0000   0.6100
  -1.100   0.3627   0.00491   0.00089  -0.1223  0.4000  0.1046  -0.5856   0.0000   0.5879
  -1.000   0.3740   0.00492   0.00090  -0.1224  0.3915  0.1156  -0.5891   0.0000   0.5778
  -0.900   0.3855   0.00490   0.00090  -0.1226  0.3844  0.1358  -0.5951   0.0000   0.5683
  -0.700   0.4082   0.00489   0.00091  -0.1229  0.3657  0.1705  -0.6066   0.0000   0.5510
  -0.600   0.4194   0.00489   0.00092  -0.1230  0.3551  0.1871  -0.6124   0.0000   0.5431
  -0.500   0.4306   0.00491   0.00093  -0.1231  0.3443  0.2001  -0.6188   0.0000   0.5356
  -0.400   0.4418   0.00494   0.00094  -0.1232  0.3331  0.2093  -0.6249   0.0000   0.5284
  -0.300   0.4530   0.00496   0.00095  -0.1233  0.3227  0.2202  -0.6310   0.0000   0.5216
  -0.200   0.4642   0.00497   0.00097  -0.1234  0.3127  0.2380  -0.6370   0.0000   0.5151
  -0.100   0.4756   0.00495   0.00098  -0.1236  0.3042  0.2619  -0.6430   0.0000   0.5090
   0.000   0.4872   0.00492   0.00098  -0.1238  0.2993  0.2878  -0.6490   0.0000   0.5031
   0.200   0.5101   0.00493   0.00100  -0.1241  0.2877  0.3108  -0.6621   0.0000   0.4920
   0.300   0.5215   0.00494   0.00101  -0.1242  0.2815  0.3166  -0.6706   0.0000   0.4868
   0.400   0.5329   0.00497   0.00102  -0.1243  0.2755  0.3238  -0.6753   0.0000   0.4818
   0.600   0.5556   0.00501   0.00105  -0.1246  0.2619  0.3371  -0.6900   0.0000   0.4725
   0.700   0.5668   0.00505   0.00108  -0.1247  0.2543  0.3433  -0.6995   0.0000   0.4681
   0.800   0.5781   0.00507   0.00109  -0.1248  0.2461  0.3541  -0.7110   0.0000   0.4639
   0.900   0.5893   0.00509   0.00111  -0.1249  0.2375  0.3683  -0.7156   0.0000   0.4599
   1.000   0.6007   0.00509   0.00112  -0.1251  0.2304  0.3843  -0.7238   0.0000   0.4560
   1.100   0.6120   0.00509   0.00114  -0.1252  0.2223  0.4047  -0.7339   0.0000   0.4523
   1.200   0.6233   0.00509   0.00116  -0.1253  0.2144  0.4271  -0.7445   0.0000   0.4487
   1.300   0.6345   0.00510   0.00118  -0.1255  0.2058  0.4487  -0.7578   0.0000   0.4453
   1.400   0.6457   0.00512   0.00121  -0.1256  0.1953  0.4682  -0.7616   0.0000   0.4419
   1.500   0.6568   0.00514   0.00122  -0.1257  0.1859  0.4854  -0.7755   0.0000   0.4387
   1.600   0.6679   0.00517   0.00125  -0.1258  0.1764  0.4996  -0.7852   0.0000   0.4355
   1.800   0.6897   0.00527   0.00132  -0.1259  0.1529  0.5228  -0.8040   0.0000   0.4295
   1.900   0.7009   0.00531   0.00135  -0.1259  0.1445  0.5334  -0.8156   0.0000   0.4266
   2.000   0.7120   0.00535   0.00138  -0.1260  0.1376  0.5442  -0.8315   0.0000   0.4238
   2.100   0.7232   0.00537   0.00140  -0.1261  0.1315  0.5552  -0.8390   0.0000   0.4211
   2.200   0.7345   0.00540   0.00143  -0.1262  0.1263  0.5642  -0.8510   0.0000   0.4185
   2.300   0.7457   0.00544   0.00146  -0.1263  0.1198  0.5728  -0.8657   0.0000   0.4159
   2.400   0.7569   0.00546   0.00149  -0.1264  0.1155  0.5827  -0.8847   0.0000   0.4135
   2.500   0.7683   0.00549   0.00151  -0.1265  0.1121  0.5904  -0.9045   0.0000   0.4111
   2.600   0.7794   0.00553   0.00154  -0.1266  0.1073  0.5963  -0.9255   0.0000   0.4087
   2.700   0.7908   0.00555   0.00157  -0.1267  0.1041  0.6043  -0.9505   0.0000   0.4064
   2.800   0.8019   0.00560   0.00160  -0.1268  0.0988  0.6073  -0.9769   0.0000   0.4042
   2.900   0.8130   0.00565   0.00163  -0.1269  0.0945  0.6124  -1.0035   0.0000   0.4020
   3.000   0.8242   0.00569   0.00166  -0.1269  0.0901  0.6162  -1.0342   0.0000   0.3999
   3.100   0.8352   0.00574   0.00170  -0.1270  0.0846  0.6182  -1.0680   0.0000   0.3978
   3.300   0.8571   0.00588   0.00179  -0.1270  0.0713  0.6243  -1.1359   0.0000   0.3938
   3.400   0.8681   0.00593   0.00182  -0.1271  0.0670  0.6272  -1.1782   0.0000   0.3919
   3.500   0.8793   0.00597   0.00186  -0.1272  0.0650  0.6292  -1.2215   0.0000   0.3900
   3.600   0.8904   0.00602   0.00189  -0.1272  0.0612  0.6305  -1.2649   0.0000   0.3881
   3.700   0.9014   0.00608   0.00194  -0.1273  0.0574  0.6344  -1.3085   0.0000   0.3863
   3.800   0.9125   0.00612   0.00197  -0.1273  0.0540  0.6375  -1.3527   0.0000   0.3846
   4.000   0.9343   0.00625   0.00206  -0.1274  0.0456  0.6409  -1.4417   0.0000   0.3812
   4.100   0.9452   0.00631   0.00211  -0.1274  0.0417  0.6423  -1.4867   0.0000   0.3795
   4.200   0.9563   0.00636   0.00215  -0.1274  0.0398  0.6455  -1.5388   0.0000   0.3779
   4.300   0.9673   0.00642   0.00219  -0.1275  0.0366  0.6480  -1.5971   0.0000   0.3763
   4.400   0.9783   0.00647   0.00223  -0.1275  0.0349  0.6499  -1.6563   0.0000   0.3748
   4.500   0.9892   0.00653   0.00228  -0.1276  0.0322  0.6512  -1.7192   0.0000   0.3733
   4.600   1.0002   0.00658   0.00232  -0.1276  0.0307  0.6520  -1.7852   0.0000   0.3718
   4.700   1.0112   0.00664   0.00236  -0.1276  0.0285  0.6525  -1.8519   0.0000   0.3703
   4.800   1.0223   0.00668   0.00240  -0.1277  0.0279  0.6533  -1.9198   0.0000   0.3689
   4.900   1.0331   0.00675   0.00245  -0.1277  0.0258  0.6553  -1.9876   0.0000   0.3675
   5.000   1.0441   0.00680   0.00249  -0.1277  0.0243  0.6572  -2.0567   0.0000   0.3661
   5.100   1.0549   0.00686   0.00255  -0.1277  0.0223  0.6588  -2.1258   0.0000   0.3648
   5.200   1.0658   0.00691   0.00259  -0.1278  0.0210  0.6602  -2.1965   0.0000   0.3634
   5.300   1.0767   0.00697   0.00264  -0.1278  0.0197  0.6614  -2.2674   0.0000   0.3621
   5.400   1.0875   0.00704   0.00269  -0.1278  0.0179  0.6622  -2.3389   0.0000   0.3609
   5.500   1.0983   0.00710   0.00274  -0.1278  0.0170  0.6629  -2.4114   0.0000   0.3596
   5.600   1.1091   0.00716   0.00280  -0.1278  0.0157  0.6634  -2.4843   0.0000   0.3583
   5.700   1.1200   0.00722   0.00284  -0.1278  0.0149  0.6637  -2.5586   0.0000   0.3571
   5.800   1.1309   0.00727   0.00289  -0.1279  0.0145  0.6640  -2.6337   0.0000   0.3559
   5.900   1.1417   0.00733   0.00294  -0.1279  0.0140  0.6653  -2.7121   0.0000   0.3548
   6.000   1.1524   0.00739   0.00299  -0.1279  0.0134  0.6668  -2.7948   0.0000   0.3536
   6.100   1.1633   0.00745   0.00304  -0.1279  0.0127  0.6683  -2.8785   0.0000   0.3525
   6.200   1.1741   0.00750   0.00309  -0.1279  0.0123  0.6695  -2.9633   0.0000   0.3513
   6.300   1.1850   0.00755   0.00313  -0.1279  0.0122  0.6706  -3.0492   0.0000   0.3502
   6.400   1.1958   0.00760   0.00318  -0.1280  0.0121  0.6715  -3.1358   0.0000   0.3492
   6.500   1.2066   0.00765   0.00323  -0.1280  0.0119  0.6724  -3.2231   0.0000   0.3481
   6.600   1.2171   0.00773   0.00330  -0.1279  0.0110  0.6731  -3.3100   0.0000   0.3470
   6.700   1.2276   0.00780   0.00336  -0.1279  0.0098  0.6736  -3.3978   0.0000   0.3460
   6.800   1.2383   0.00787   0.00342  -0.1279  0.0095  0.6741  -3.4871   0.0000   0.3449
   6.900   1.2488   0.00794   0.00348  -0.1278  0.0090  0.6744  -3.5767   0.0000   0.3439
   7.000   1.2593   0.00801   0.00354  -0.1278  0.0084  0.6747  -3.6669   0.0000   0.3429
   7.100   1.2699   0.00808   0.00360  -0.1278  0.0078  0.6749  -3.7584   0.0000   0.3419
   7.200   1.2805   0.00814   0.00366  -0.1277  0.0076  0.6751  -3.8511   0.0000   0.3409
   7.300   1.2910   0.00820   0.00371  -0.1277  0.0075  0.6754  -3.9447   0.0000   0.3399
   7.400   1.3016   0.00827   0.00378  -0.1277  0.0073  0.6763  -4.0389   0.0000   0.3390
   7.500   1.3120   0.00834   0.00384  -0.1276  0.0071  0.6775  -4.1336   0.0000   0.3380
   7.600   1.3225   0.00841   0.00390  -0.1276  0.0069  0.6787  -4.2289   0.0000   0.3371
   7.700   1.3328   0.00848   0.00397  -0.1275  0.0066  0.6797  -4.3248   0.0000   0.3362
   7.800   1.3432   0.00855   0.00404  -0.1275  0.0063  0.6806  -4.4215   0.0000   0.3352
   7.900   1.3536   0.00862   0.00410  -0.1274  0.0059  0.6814  -4.5191   0.0000   0.3343
   8.000   1.3640   0.00869   0.00416  -0.1274  0.0057  0.6821  -4.6175   0.0000   0.3334
   8.100   1.3744   0.00876   0.00423  -0.1273  0.0057  0.6827  -4.7173   0.0000   0.3326
   8.200   1.3848   0.00882   0.00429  -0.1272  0.0057  0.6833  -4.8179   0.0000   0.3317
   8.300   1.3952   0.00889   0.00435  -0.1272  0.0057  0.6838  -4.9193   0.0000   0.3308
   8.400   1.4055   0.00896   0.00441  -0.1271  0.0057  0.6843  -5.0213   0.0000   0.3300
   8.500   1.4158   0.00902   0.00448  -0.1271  0.0056  0.6847  -5.1240   0.0000   0.3291
   8.600   1.4261   0.00909   0.00454  -0.1270  0.0056  0.6850  -5.2275   0.0000   0.3283
   8.700   1.4363   0.00917   0.00461  -0.1269  0.0056  0.6853  -5.3316   0.0000   0.3274
   8.800   1.4465   0.00924   0.00468  -0.1268  0.0055  0.6856  -5.4412   0.0000   0.3266
   8.900   1.4566   0.00932   0.00475  -0.1267  0.0054  0.6858  -5.5538   0.0000   0.3258
   9.000   1.4666   0.00940   0.00483  -0.1266  0.0053  0.6860  -5.6667   0.0000   0.3250
   9.100   1.4765   0.00949   0.00491  -0.1264  0.0051  0.6861  -5.7801   0.0000   0.3241
   9.200   1.4863   0.00958   0.00500  -0.1263  0.0049  0.6862  -5.8940   0.0000   0.3233
   9.300   1.4962   0.00966   0.00508  -0.1262  0.0047  0.6863  -6.0089   0.0000   0.3225
   9.400   1.5061   0.00975   0.00516  -0.1260  0.0046  0.6864  -6.1247   0.0000   0.3217
   9.500   1.5160   0.00983   0.00524  -0.1259  0.0044  0.6870  -6.2412   0.0000   0.3209
   9.600   1.5258   0.00992   0.00532  -0.1257  0.0043  0.6878  -6.3585   0.0000   0.3201
   9.700   1.5356   0.01000   0.00540  -0.1256  0.0041  0.6886  -6.4765   0.0000   0.3194
   9.800   1.5454   0.01009   0.00548  -0.1254  0.0040  0.6896  -6.5953   0.0000   0.3186
   9.900   1.5552   0.01017   0.00556  -0.1253  0.0040  0.6904  -6.7156   0.0000   0.3178
  10.000   1.5649   0.01025   0.00564  -0.1251  0.0040  0.6912  -6.8367   0.0000   0.3171
  10.100   1.5746   0.01033   0.00572  -0.1249  0.0040  0.6919  -6.9584   0.0000   0.3163
  10.200   1.5843   0.01041   0.00580  -0.1248  0.0040  0.6925  -7.0808   0.0000   0.3156
  10.300   1.5939   0.01050   0.00588  -0.1246  0.0040  0.6931  -7.2038   0.0000   0.3148
  10.400   1.6034   0.01058   0.00596  -0.1244  0.0040  0.6937  -7.3274   0.0000   0.3141
  10.500   1.6129   0.01067   0.00605  -0.1242  0.0040  0.6942  -7.4549   0.0000   0.3133
  10.600   1.6224   0.01076   0.00614  -0.1240  0.0040  0.6946  -7.5877   0.0000   0.3126
  10.700   1.6318   0.01085   0.00622  -0.1238  0.0040  0.6950  -7.7211   0.0000   0.3118
  10.800   1.6411   0.01094   0.00631  -0.1235  0.0040  0.6954  -7.8552   0.0000   0.3111
  10.900   1.6504   0.01103   0.00640  -0.1233  0.0040  0.6957  -7.9899   0.0000   0.3104
  11.000   1.6596   0.01112   0.00649  -0.1230  0.0040  0.6960  -8.1252   0.0000   0.3096
  11.100   1.6688   0.01122   0.00658  -0.1228  0.0040  0.6963  -8.2610   0.0000   0.3089
  11.200   1.6778   0.01131   0.00668  -0.1225  0.0039  0.6965  -8.3973   0.0000   0.3082
  11.300   1.6867   0.01141   0.00677  -0.1222  0.0039  0.6967  -8.5331   0.0000   0.3074
  11.400   1.6946   0.01150   0.00686  -0.1217  0.0039  0.6969  -8.6636   0.0000   0.3066
  11.500   1.7023   0.01160   0.00695  -0.1211  0.0039  0.6970  -8.7937   0.0000   0.3058
  11.600   1.7103   0.01170   0.00705  -0.1206  0.0038  0.6972  -8.9262   0.0000   0.3050
  11.700   1.7182   0.01181   0.00716  -0.1201  0.0038  0.6973  -9.0592   0.0000   0.3042
  11.800   1.7260   0.01192   0.00727  -0.1196  0.0037  0.6974  -9.1922   0.0000   0.3034
  11.900   1.7337   0.01204   0.00739  -0.1191  0.0037  0.6975  -9.3250   0.0000   0.3027
  12.000   1.7412   0.01216   0.00751  -0.1185  0.0036  0.6975  -9.4575   0.0000   0.3019
  12.100   1.7486   0.01229   0.00763  -0.1179  0.0035  0.6976  -9.5900   0.0000   0.3011
  12.200   1.7559   0.01242   0.00776  -0.1173  0.0034  0.6976  -9.7226   0.0000   0.3003
  12.300   1.7632   0.01255   0.00789  -0.1167  0.0034  0.6982  -9.8556   0.0000   0.2995
  12.400   1.7704   0.01268   0.00803  -0.1161  0.0033  0.6989  -9.9892   0.0000   0.2987
  12.500   1.7776   0.01282   0.00816  -0.1156  0.0032  0.6996  -10.1235   0.0000   0.2980
  12.600   1.7848   0.01295   0.00830  -0.1150  0.0031  0.7003  -10.2582   0.0000   0.2972
  12.700   1.7920   0.01309   0.00844  -0.1144  0.0030  0.7011  -10.3937   0.0000   0.2964
  12.800   1.7991   0.01324   0.00858  -0.1138  0.0029  0.7018  -10.5293   0.0000   0.2957
  12.900   1.8062   0.01338   0.00873  -0.1132  0.0028  0.7025  -10.6654   0.0000   0.2949
  13.000   1.8133   0.01353   0.00888  -0.1126  0.0028  0.7031  -10.8021   0.0000   0.2942
  13.100   1.8203   0.01368   0.00903  -0.1120  0.0027  0.7036  -10.9390   0.0000   0.2934
  13.200   1.8274   0.01383   0.00918  -0.1115  0.0026  0.7042  -11.0775   0.0000   0.2927
  13.300   1.8345   0.01398   0.00933  -0.1109  0.0026  0.7046  -11.2177   0.0000   0.2920
  13.400   1.8416   0.01413   0.00948  -0.1104  0.0026  0.7051  -11.3587   0.0000   0.2912
  13.500   1.8487   0.01428   0.00964  -0.1098  0.0026  0.7055  -11.4999   0.0000   0.2905
  13.600   1.8556   0.01444   0.00980  -0.1092  0.0026  0.7059  -11.6410   0.0000   0.2898
  13.700   1.8626   0.01460   0.00996  -0.1087  0.0026  0.7062  -11.7830   0.0000   0.2891
  13.800   1.8695   0.01476   0.01013  -0.1081  0.0026  0.7066  -11.9252   0.0000   0.2884
  13.900   1.8764   0.01493   0.01029  -0.1076  0.0026  0.7069  -12.0686   0.0000   0.2877
  14.000   1.8832   0.01510   0.01047  -0.1070  0.0026  0.7071  -12.2116   0.0000   0.2870
  14.100   1.8900   0.01527   0.01064  -0.1064  0.0026  0.7073  -12.3547   0.0000   0.2863
  14.200   1.8967   0.01545   0.01082  -0.1058  0.0026  0.7076  -12.4981   0.0000   0.2856
  14.300   1.9033   0.01563   0.01101  -0.1052  0.0026  0.7077  -12.6418   0.0000   0.2849
  14.400   1.9100   0.01582   0.01119  -0.1047  0.0026  0.7079  -12.7868   0.0000   0.2842
  14.500   1.9166   0.01601   0.01139  -0.1041  0.0026  0.7080  -12.9315   0.0000   0.2835
  14.600   1.9231   0.01620   0.01158  -0.1035  0.0026  0.7082  -13.0769   0.0000   0.2828
  14.700   1.9296   0.01640   0.01178  -0.1029  0.0026  0.7083  -13.2221   0.0000   0.2822
  14.800   1.9359   0.01660   0.01198  -0.1023  0.0026  0.7084  -13.3664   0.0000   0.2815
  14.900   1.9422   0.01680   0.01219  -0.1017  0.0026  0.7085  -13.5122   0.0000   0.2808
  15.000   1.9485   0.01701   0.01240  -0.1011  0.0026  0.7085  -13.6580   0.0000   0.2801
  15.100   1.9547   0.01723   0.01262  -0.1005  0.0026  0.7086  -13.8038   0.0000   0.2794
  15.200   1.9610   0.01744   0.01284  -0.1000  0.0026  0.7087  -13.9511   0.0000   0.2788
  15.300   1.9671   0.01766   0.01306  -0.0994  0.0026  0.7087  -14.0975   0.0000   0.2781
  15.400   1.9732   0.01789   0.01329  -0.0988  0.0026  0.7088  -14.2442   0.0000   0.2774
  15.500   1.9792   0.01812   0.01352  -0.0982  0.0026  0.7088  -14.3915   0.0000   0.2768
  15.600   1.9850   0.01836   0.01376  -0.0975  0.0026  0.7089  -14.5366   0.0000   0.2761
  15.700   1.9907   0.01860   0.01401  -0.0969  0.0026  0.7089  -14.6828   0.0000   0.2754
  15.800   1.9966   0.01884   0.01425  -0.0963  0.0026  0.7092  -14.8307   0.0000   0.2748
  15.900   2.0023   0.01909   0.01451  -0.0956  0.0026  0.7097  -14.9768   0.0000   0.2741
  16.000   2.0080   0.01935   0.01477  -0.0950  0.0026  0.7102  -15.1241   0.0000   0.2735
  16.100   2.0137   0.01960   0.01503  -0.0944  0.0026  0.7107  -15.2726   0.0000   0.2728
  16.200   2.0191   0.01988   0.01531  -0.0938  0.0026  0.7113  -15.4187   0.0000   0.2722
  16.300   2.0246   0.02015   0.01559  -0.0932  0.0026  0.7119  -15.5662   0.0000   0.2715
  16.400   2.0302   0.02042   0.01587  -0.0926  0.0025  0.7124  -15.7145   0.0000   0.2709
  16.500   2.0352   0.02071   0.01616  -0.0919  0.0025  0.7130  -15.8588   0.0000   0.2702
  16.600   2.0403   0.02100   0.01646  -0.0912  0.0025  0.7135  -16.0044   0.0000   0.2696
  16.700   2.0455   0.02129   0.01676  -0.0906  0.0025  0.7140  -16.1514   0.0000   0.2689
  16.800   2.0502   0.02161   0.01708  -0.0899  0.0025  0.7145  -16.2953   0.0000   0.2683
  16.900   2.0552   0.02192   0.01740  -0.0892  0.0025  0.7149  -16.4410   0.0000   0.2676
  17.000   2.0601   0.02224   0.01772  -0.0886  0.0025  0.7153  -16.5878   0.0000   0.2670
  17.100   2.0646   0.02258   0.01807  -0.0879  0.0025  0.7157  -16.7305   0.0000   0.2663
  17.200   2.0693   0.02292   0.01842  -0.0873  0.0024  0.7161  -16.8750   0.0000   0.2657
  17.300   2.0739   0.02326   0.01877  -0.0866  0.0024  0.7165  -17.0200   0.0000   0.2651
  17.400   2.0780   0.02364   0.01915  -0.0859  0.0024  0.7168  -17.1602   0.0000   0.2644
  17.500   2.0821   0.02401   0.01953  -0.0852  0.0023  0.7172  -17.3020   0.0000   0.2638
  17.600   2.0861   0.02439   0.01991  -0.0845  0.0023  0.7175  -17.4419   0.0000   0.2631
  17.700   2.0895   0.02480   0.02033  -0.0837  0.0023  0.7178  -17.5775   0.0000   0.2625
  17.800   2.0934   0.02520   0.02074  -0.0830  0.0022  0.7181  -17.7171   0.0000   0.2618
  17.900   2.0969   0.02563   0.02117  -0.0823  0.0022  0.7183  -17.8541   0.0000   0.2612
  18.000   2.1002   0.02607   0.02162  -0.0815  0.0022  0.7186  -17.9897   0.0000   0.2605
  18.100   2.1040   0.02649   0.02205  -0.0809  0.0021  0.7188  -18.1296   0.0000   0.2599
  18.200   2.1072   0.02695   0.02252  -0.0801  0.0021  0.7190  -18.2645   0.0000   0.2593
  18.300   2.1105   0.02741   0.02299  -0.0794  0.0021  0.7192  -18.4013   0.0000   0.2587
  18.400   2.1142   0.02786   0.02344  -0.0788  0.0020  0.7193  -18.5412   0.0000   0.2581
  18.500   2.1172   0.02835   0.02394  -0.0781  0.0020  0.7194  -18.6752   0.0000   0.2574
  18.600   2.1206   0.02883   0.02442  -0.0774  0.0020  0.7196  -18.8136   0.0000   0.2568
  18.700   2.1239   0.02930   0.02491  -0.0768  0.0019  0.7197  -18.9516   0.0000   0.2562
  18.800   2.1265   0.02982   0.02543  -0.0761  0.0019  0.7197  -19.0835   0.0000   0.2556
  18.900   2.1298   0.03031   0.02593  -0.0754  0.0019  0.7198  -19.2213   0.0000   0.2550
  19.000   2.1326   0.03083   0.02646  -0.0748  0.0018  0.7199  -19.3553   0.0000   0.2544
  19.100   2.1354   0.03137   0.02701  -0.0741  0.0018  0.7200  -19.4892   0.0000   0.2538
  19.200   2.1386   0.03189   0.02753  -0.0735  0.0018  0.7200  -19.6280   0.0000   0.2533
  19.300   2.1410   0.03246   0.02812  -0.0729  0.0017  0.7201  -19.7595   0.0000   0.2527
  19.400   2.1439   0.03302   0.02869  -0.0723  0.0017  0.7201  -19.8948   0.0000   0.2521
  19.500   2.1468   0.03358   0.02926  -0.0717  0.0017  0.7202  -20.0315   0.0000   0.2515
  19.600   2.1490   0.03420   0.02989  -0.0711  0.0016  0.7202  -20.1668   0.0000   0.2510
  19.700   2.1519   0.03477   0.03047  -0.0706  0.0016  0.7202  -20.3100   0.0000   0.2504
  19.800   2.1542   0.03540   0.03110  -0.0700  0.0016  0.7205  -20.4486   0.0000   0.2499
  19.900   2.1564   0.03604   0.03176  -0.0694  0.0016  0.7210  -20.5859   0.0000   0.2493
  20.000   2.1592   0.03663   0.03236  -0.0689  0.0016  0.7214  -20.7298   0.0000   0.2488


