xflr5 v6.32

 Calculated polar for: foil1 modified

 1 1 Reynolds number fixed          Mach number fixed         

 xtrf =   1.000 (top)        1.000 (bottom)
 Mach =   0.000     Re =     2.000 e 6     Ncrit =   9.000

  alpha     CL        CD       CDp       Cm    Top Xtr Bot Xtr   Cpmin    Chinge    XCp    
 ------- -------- --------- --------- -------- ------- ------- -------- --------- ---------
 -14.100  -0.6779   0.06524   0.06358  -0.0862  0.9606  0.0084  -8.3515   0.0000   0.1006
 -14.000  -0.6686   0.06543   0.06379  -0.0861  0.9574  0.0085  -8.1798   0.0000   0.0991
 -13.900  -0.6620   0.06500   0.06336  -0.0864  0.9545  0.0085  -8.0511   0.0000   0.0974
 -13.800  -0.6568   0.06428   0.06264  -0.0870  0.9517  0.0086  -7.9420   0.0000   0.0957
 -13.700  -0.6527   0.06329   0.06164  -0.0879  0.9492  0.0086  -7.8506   0.0000   0.0937
 -13.600  -0.6502   0.06204   0.06036  -0.0889  0.9466  0.0086  -7.7798   0.0000   0.0918
 -13.500  -0.6504   0.06028   0.05857  -0.0903  0.9442  0.0087  -7.7483   0.0000   0.0900
 -13.400  -0.6507   0.05860   0.05687  -0.0917  0.9417  0.0087  -7.7143   0.0000   0.0882
 -13.300  -0.6509   0.05703   0.05527  -0.0930  0.9395  0.0087  -7.6776   0.0000   0.0866
 -13.200  -0.6510   0.05556   0.05377  -0.0941  0.9374  0.0087  -7.6366   0.0000   0.0851
 -13.100  -0.6510   0.05417   0.05235  -0.0952  0.9352  0.0088  -7.5931   0.0000   0.0837
 -13.000  -0.6510   0.05286   0.05100  -0.0962  0.9333  0.0088  -7.5478   0.0000   0.0825
 -12.900  -0.6505   0.05163   0.04975  -0.0971  0.9313  0.0088  -7.4966   0.0000   0.0812
 -12.800  -0.6495   0.05052   0.04862  -0.0980  0.9293  0.0088  -7.4389   0.0000   0.0800
 -12.700  -0.6482   0.04954   0.04760  -0.0986  0.9275  0.0089  -7.3744   0.0000   0.0788
 -12.600  -0.6462   0.04868   0.04672  -0.0992  0.9259  0.0089  -7.3018   0.0000   0.0777
 -12.500  -0.6434   0.04793   0.04596  -0.0998  0.9241  0.0090  -7.2200   0.0000   0.0764
 -12.400  -0.6400   0.04728   0.04530  -0.1003  0.9224  0.0090  -7.1306   0.0000   0.0750
 -12.300  -0.6356   0.04679   0.04480  -0.1007  0.9210  0.0091  -7.0286   0.0000   0.0736
 -12.200  -0.6293   0.04658   0.04458  -0.1009  0.9197  0.0091  -6.9032   0.0000   0.0717
 -12.100  -0.6195   0.04680   0.04482  -0.1010  0.9185  0.0092  -6.7362   0.0000   0.0691
 -11.900  -0.7877   0.02488   0.02133  -0.1015  0.9038  0.0082  -9.0636   0.0000   0.1058
 -11.800  -0.7848   0.02417   0.02055  -0.1014  0.9021  0.0082  -9.0215   0.0000   0.1056
 -11.700  -0.7808   0.02346   0.01977  -0.1015  0.9006  0.0082  -8.9743   0.0000   0.1051
 -11.600  -0.7753   0.02274   0.01898  -0.1017  0.8994  0.0082  -8.9193   0.0000   0.1039
 -11.500  -0.7692   0.02205   0.01822  -0.1020  0.8981  0.0083  -8.8594   0.0000   0.1027
 -11.400  -0.7626   0.02139   0.01750  -0.1023  0.8968  0.0083  -8.7943   0.0000   0.1013
 -11.300  -0.7555   0.02078   0.01683  -0.1025  0.8956  0.0083  -8.7238   0.0000   0.0998
 -11.200  -0.7480   0.02021   0.01621  -0.1027  0.8944  0.0083  -8.6478   0.0000   0.0982
 -11.100  -0.7402   0.01970   0.01565  -0.1029  0.8934  0.0084  -8.5664   0.0000   0.0966
 -11.000  -0.7321   0.01924   0.01513  -0.1031  0.8924  0.0084  -8.4800   0.0000   0.0950
 -10.900  -0.7237   0.01881   0.01466  -0.1032  0.8915  0.0084  -8.3890   0.0000   0.0933
 -10.800  -0.7150   0.01842   0.01423  -0.1033  0.8905  0.0085  -8.2935   0.0000   0.0915
 -10.700  -0.7061   0.01805   0.01383  -0.1034  0.8895  0.0085  -8.1946   0.0000   0.0896
 -10.600  -0.6970   0.01771   0.01346  -0.1036  0.8884  0.0085  -8.0929   0.0000   0.0875
 -10.500  -0.6877   0.01739   0.01311  -0.1037  0.8874  0.0086  -7.9890   0.0000   0.0854
 -10.400  -0.6782   0.01708   0.01278  -0.1038  0.8865  0.0086  -7.8835   0.0000   0.0832
 -10.300  -0.6686   0.01680   0.01246  -0.1040  0.8856  0.0087  -7.7770   0.0000   0.0809
 -10.200  -0.6590   0.01652   0.01216  -0.1041  0.8848  0.0087  -7.6698   0.0000   0.0784
 -10.100  -0.6492   0.01626   0.01186  -0.1043  0.8840  0.0088  -7.5623   0.0000   0.0759
 -10.000  -0.6393   0.01600   0.01158  -0.1044  0.8831  0.0088  -7.4546   0.0000   0.0732
  -9.900  -0.6293   0.01575   0.01131  -0.1046  0.8822  0.0089  -7.3470   0.0000   0.0705
  -9.800  -0.6192   0.01550   0.01104  -0.1047  0.8812  0.0089  -7.2397   0.0000   0.0676
  -9.700  -0.6091   0.01526   0.01077  -0.1048  0.8802  0.0090  -7.1327   0.0000   0.0646
  -9.600  -0.5990   0.01502   0.01051  -0.1050  0.8792  0.0090  -7.0263   0.0000   0.0615
  -9.500  -0.5888   0.01479   0.01025  -0.1051  0.8783  0.0091  -6.9204   0.0000   0.0582
  -9.400  -0.5785   0.01456   0.01000  -0.1053  0.8775  0.0092  -6.8149   0.0000   0.0549
  -9.300  -0.5682   0.01434   0.00975  -0.1054  0.8767  0.0092  -6.7099   0.0000   0.0513
  -9.200  -0.5578   0.01412   0.00951  -0.1056  0.8759  0.0093  -6.6052   0.0000   0.0477
  -9.100  -0.5474   0.01391   0.00927  -0.1057  0.8751  0.0094  -6.5007   0.0000   0.0438
  -9.000  -0.5369   0.01369   0.00904  -0.1059  0.8742  0.0094  -6.3963   0.0000   0.0397
  -8.900  -0.5264   0.01348   0.00881  -0.1060  0.8732  0.0095  -6.2920   0.0000   0.0355
  -8.800  -0.5158   0.01327   0.00859  -0.1062  0.8723  0.0095  -6.1880   0.0000   0.0311
  -8.700  -0.5052   0.01307   0.00836  -0.1064  0.8714  0.0096  -6.0843   0.0000   0.0265
  -8.600  -0.4946   0.01287   0.00815  -0.1065  0.8705  0.0097  -5.9808   0.0000   0.0216
  -8.500  -0.4839   0.01268   0.00793  -0.1067  0.8697  0.0097  -5.8776   0.0000   0.0165
  -8.400  -0.4732   0.01249   0.00772  -0.1069  0.8689  0.0098  -5.7746   0.0000   0.0112
  -8.300  -0.4625   0.01231   0.00752  -0.1070  0.8681  0.0098  -5.6718   0.0000   0.0055
  -8.200  -0.4517   0.01213   0.00732  -0.1072  0.8673  0.0099  -5.5691   0.0000  -0.0004
  -8.100  -0.4408   0.01195   0.00713  -0.1074  0.8663  0.0099  -5.4666   0.0000  -0.0067
  -8.000  -0.4299   0.01178   0.00694  -0.1076  0.8654  0.0100  -5.3643   0.0000  -0.0134
  -7.900  -0.4190   0.01160   0.00676  -0.1078  0.8644  0.0100  -5.2623   0.0000  -0.0204
  -7.800  -0.4080   0.01144   0.00657  -0.1079  0.8635  0.0101  -5.1605   0.0000  -0.0278
  -7.700  -0.3970   0.01128   0.00640  -0.1081  0.8625  0.0101  -5.0590   0.0000  -0.0357
  -7.600  -0.3860   0.01112   0.00623  -0.1083  0.8617  0.0101  -4.9577   0.0000  -0.0440
  -7.500  -0.3749   0.01097   0.00606  -0.1085  0.8608  0.0102  -4.8568   0.0000  -0.0529
  -7.400  -0.3638   0.01083   0.00590  -0.1087  0.8600  0.0102  -4.7562   0.0000  -0.0624
  -7.300  -0.3526   0.01069   0.00574  -0.1089  0.8591  0.0102  -4.6559   0.0000  -0.0726
  -7.200  -0.3414   0.01055   0.00559  -0.1091  0.8582  0.0103  -4.5559   0.0000  -0.0834
  -7.100  -0.3302   0.01041   0.00545  -0.1093  0.8572  0.0103  -4.4564   0.0000  -0.0951
  -7.000  -0.3189   0.01028   0.00531  -0.1095  0.8563  0.0103  -4.3573   0.0000  -0.1076
  -6.900  -0.3076   0.01015   0.00517  -0.1097  0.8554  0.0104  -4.2586   0.0000  -0.1211
  -6.800  -0.2964   0.00999   0.00500  -0.1100  0.8544  0.0104  -4.1649   0.0000  -0.1355
  -6.700  -0.2853   0.00974   0.00471  -0.1102  0.8536  0.0105  -4.0837   0.0000  -0.1509
  -6.600  -0.2742   0.00953   0.00448  -0.1104  0.8527  0.0106  -3.9984   0.0000  -0.1678
  -6.500  -0.2629   0.00935   0.00428  -0.1107  0.8518  0.0107  -3.9103   0.0000  -0.1863
  -6.400  -0.2515   0.00920   0.00411  -0.1109  0.8509  0.0109  -3.8200   0.0000  -0.2066
  -6.300  -0.2401   0.00906   0.00397  -0.1111  0.8500  0.0110  -3.7280   0.0000  -0.2289
  -6.200  -0.2286   0.00894   0.00384  -0.1114  0.8489  0.0112  -3.6350   0.0000  -0.2535
  -6.100  -0.2171   0.00883   0.00373  -0.1116  0.8479  0.0113  -3.5413   0.0000  -0.2809
  -6.000  -0.2056   0.00873   0.00363  -0.1118  0.8470  0.0115  -3.4477   0.0000  -0.3113
  -5.900  -0.1940   0.00864   0.00353  -0.1120  0.8460  0.0117  -3.3545   0.0000  -0.3454
  -5.800  -0.1824   0.00855   0.00343  -0.1123  0.8451  0.0118  -3.2622   0.0000  -0.3839
  -5.700  -0.1709   0.00846   0.00334  -0.1125  0.8443  0.0120  -3.1708   0.0000  -0.4276
  -5.600  -0.1593   0.00839   0.00325  -0.1127  0.8434  0.0123  -3.0804   0.0000  -0.4777
  -5.500  -0.1477   0.00831   0.00317  -0.1129  0.8425  0.0125  -2.9901   0.0000  -0.5358
  -5.400  -0.1360   0.00824   0.00310  -0.1131  0.8414  0.0127  -2.9004   0.0000  -0.6039
  -5.300  -0.1244   0.00817   0.00303  -0.1133  0.8404  0.0129  -2.8110   0.0000  -0.6848
  -5.200  -0.1128   0.00810   0.00296  -0.1135  0.8392  0.0131  -2.7222   0.0000  -0.7825
  -5.100  -0.1011   0.00797   0.00282  -0.1138  0.8382  0.0136  -2.6427   0.0000  -0.9028
  -5.000  -0.0895   0.00788   0.00272  -0.1140  0.8371  0.0142  -2.5594   0.0000  -1.0545
  -4.900  -0.0779   0.00780   0.00265  -0.1142  0.8361  0.0147  -2.4743   0.0000  -1.2515
  -4.800  -0.0662   0.00774   0.00258  -0.1144  0.8352  0.0152  -2.3956   0.0000  -1.5181
  -4.700  -0.0545   0.00768   0.00251  -0.1146  0.8343  0.0157  -2.3233   0.0000  -1.8994
  -4.600  -0.0428   0.00762   0.00246  -0.1149  0.8333  0.0162  -2.2511   0.0000  -2.4903
  -4.500  -0.0311   0.00752   0.00236  -0.1151  0.8322  0.0177  -2.1848   0.0000  -3.5293
  -4.400  -0.0194   0.00745   0.00230  -0.1153  0.8310  0.0190  -2.1139   0.0000  -5.8202
  -4.300  -0.0077   0.00737   0.00223  -0.1156  0.8299  0.0210  -2.0446   0.0000  -15.1102
  -4.200   0.0040   0.00730   0.00217  -0.1158  0.8287  0.0232  -1.9737   0.0000  29.5324
  -4.100   0.0157   0.00722   0.00210  -0.1160  0.8276  0.0265  -1.9031   0.0000   7.7629
  -4.000   0.0274   0.00715   0.00204  -0.1162  0.8265  0.0306  -1.8322   0.0000   4.5649
  -3.900   0.0391   0.00708   0.00199  -0.1165  0.8255  0.0355  -1.7616   0.0000   3.2785
  -3.700   0.0626   0.00691   0.00188  -0.1170  0.8231  0.0486  -1.6215   0.0000   2.1480
  -3.600   0.0744   0.00683   0.00183  -0.1172  0.8218  0.0577  -1.5524   0.0000   1.8505
  -3.500   0.0861   0.00673   0.00178  -0.1175  0.8207  0.0685  -1.4840   0.0000   1.6343
  -3.400   0.0979   0.00663   0.00172  -0.1178  0.8195  0.0821  -1.4164   0.0000   1.4702
  -3.300   0.1096   0.00652   0.00167  -0.1180  0.8183  0.0984  -1.3496   0.0000   1.3413
  -3.200   0.1214   0.00640   0.00161  -0.1184  0.8172  0.1192  -1.2837   0.0000   1.2375
  -3.100   0.1332   0.00624   0.00154  -0.1187  0.8161  0.1470  -1.2186   0.0000   1.1521
  -3.000   0.1452   0.00605   0.00147  -0.1191  0.8148  0.1847  -1.1543   0.0000   1.0805
  -2.900   0.1571   0.00580   0.00139  -0.1196  0.8134  0.2334  -1.0910   0.0000   1.0200
  -2.800   0.1691   0.00553   0.00130  -0.1201  0.8119  0.2917  -1.0284   0.0000   0.9682
  -2.700   0.1811   0.00525   0.00121  -0.1207  0.8105  0.3520  -0.9665   0.0000   0.9232
  -2.600   0.1930   0.00497   0.00111  -0.1212  0.8092  0.4151  -0.9055   0.0000   0.8839
  -2.500   0.2049   0.00473   0.00103  -0.1217  0.8079  0.4712  -0.8452   0.0000   0.8490
  -2.400   0.2169   0.00451   0.00097  -0.1221  0.8065  0.5216  -0.7855   0.0000   0.8177
  -2.300   0.2287   0.00436   0.00092  -0.1224  0.8051  0.5598  -0.7266   0.0000   0.7895
  -2.200   0.2405   0.00427   0.00090  -0.1226  0.8036  0.5841  -0.6685   0.0000   0.7637
  -2.100   0.2523   0.00421   0.00089  -0.1228  0.8021  0.6016  -0.6115   0.0000   0.7404
  -2.000   0.2640   0.00418   0.00088  -0.1230  0.8006  0.6154  -0.5555   0.0000   0.7191
  -1.900   0.2757   0.00417   0.00088  -0.1232  0.7993  0.6262  -0.5471   0.0000   0.6995
  -1.800   0.2874   0.00416   0.00088  -0.1233  0.7978  0.6343  -0.5522   0.0000   0.6816
  -1.700   0.2992   0.00415   0.00088  -0.1235  0.7962  0.6419  -0.5572   0.0000   0.6649
  -1.600   0.3109   0.00414   0.00089  -0.1237  0.7944  0.6485  -0.5623   0.0000   0.6496
  -1.500   0.3226   0.00415   0.00090  -0.1238  0.7927  0.6540  -0.5679   0.0000   0.6353
  -1.400   0.3343   0.00415   0.00090  -0.1239  0.7911  0.6582  -0.5735   0.0000   0.6221
  -1.300   0.3459   0.00417   0.00090  -0.1241  0.7895  0.6623  -0.5790   0.0000   0.6098
  -1.200   0.3576   0.00418   0.00092  -0.1242  0.7877  0.6665  -0.5846   0.0000   0.5982
  -1.100   0.3694   0.00419   0.00094  -0.1244  0.7857  0.6713  -0.5902   0.0000   0.5873
  -1.000   0.3811   0.00421   0.00095  -0.1245  0.7836  0.6756  -0.5958   0.0000   0.5771
  -0.900   0.3926   0.00423   0.00097  -0.1246  0.7817  0.6788  -0.6016   0.0000   0.5676
  -0.800   0.4042   0.00426   0.00099  -0.1247  0.7799  0.6812  -0.6076   0.0000   0.5586
  -0.700   0.4159   0.00428   0.00100  -0.1248  0.7779  0.6833  -0.6136   0.0000   0.5501
  -0.600   0.4277   0.00429   0.00101  -0.1250  0.7757  0.6851  -0.6197   0.0000   0.5420
  -0.500   0.4394   0.00431   0.00101  -0.1251  0.7735  0.6865  -0.6257   0.0000   0.5344
  -0.400   0.4509   0.00432   0.00102  -0.1252  0.7713  0.6877  -0.6316   0.0000   0.5273
  -0.300   0.4624   0.00433   0.00103  -0.1254  0.7691  0.6887  -0.6375   0.0000   0.5204
  -0.200   0.4741   0.00434   0.00104  -0.1255  0.7664  0.6895  -0.6436   0.0000   0.5139
  -0.100   0.4857   0.00436   0.00104  -0.1256  0.7637  0.6904  -0.6497   0.0000   0.5077
   0.000   0.4971   0.00438   0.00105  -0.1257  0.7612  0.6913  -0.6563   0.0000   0.5018
   0.100   0.5087   0.00440   0.00106  -0.1258  0.7586  0.6922  -0.6630   0.0000   0.4962
   0.200   0.5204   0.00441   0.00107  -0.1260  0.7558  0.6932  -0.6700   0.0000   0.4908
   0.300   0.5319   0.00443   0.00108  -0.1261  0.7530  0.6941  -0.6772   0.0000   0.4856
   0.400   0.5433   0.00446   0.00109  -0.1262  0.7502  0.6951  -0.6846   0.0000   0.4807
   0.500   0.5549   0.00447   0.00110  -0.1263  0.7469  0.6960  -0.6922   0.0000   0.4760
   0.600   0.5664   0.00450   0.00111  -0.1264  0.7434  0.6967  -0.6997   0.0000   0.4714
   0.700   0.5778   0.00453   0.00112  -0.1265  0.7402  0.6974  -0.7078   0.0000   0.4671
   0.800   0.5894   0.00454   0.00113  -0.1266  0.7366  0.6981  -0.7161   0.0000   0.4629
   0.900   0.6007   0.00455   0.00114  -0.1267  0.7330  0.6988  -0.7251   0.0000   0.4588
   1.000   0.6120   0.00458   0.00115  -0.1268  0.7300  0.6995  -0.7341   0.0000   0.4550
   1.100   0.6236   0.00459   0.00117  -0.1269  0.7269  0.7001  -0.7433   0.0000   0.4512
   1.200   0.6350   0.00461   0.00119  -0.1270  0.7238  0.7008  -0.7527   0.0000   0.4476
   1.300   0.6463   0.00465   0.00121  -0.1271  0.7207  0.7014  -0.7628   0.0000   0.4441
   1.400   0.6578   0.00467   0.00123  -0.1272  0.7173  0.7021  -0.7731   0.0000   0.4407
   1.500   0.6691   0.00469   0.00125  -0.1273  0.7133  0.7028  -0.7833   0.0000   0.4375
   1.600   0.6804   0.00473   0.00127  -0.1273  0.7092  0.7035  -0.7948   0.0000   0.4343
   1.700   0.6916   0.00476   0.00129  -0.1274  0.7042  0.7041  -0.8062   0.0000   0.4313
   1.800   0.7026   0.00481   0.00132  -0.1274  0.6987  0.7048  -0.8176   0.0000   0.4283
   1.900   0.7136   0.00485   0.00134  -0.1274  0.6917  0.7055  -0.8289   0.0000   0.4254
   2.000   0.7245   0.00490   0.00137  -0.1274  0.6839  0.7062  -0.8403   0.0000   0.4226
   2.100   0.7353   0.00497   0.00139  -0.1273  0.6753  0.7068  -0.8522   0.0000   0.4199
   2.200   0.7459   0.00504   0.00143  -0.1273  0.6663  0.7074  -0.8649   0.0000   0.4173
   2.300   0.7565   0.00511   0.00146  -0.1272  0.6570  0.7080  -0.8787   0.0000   0.4147
   2.500   0.7778   0.00525   0.00153  -0.1271  0.6386  0.7089  -0.9177   0.0000   0.4098
   2.600   0.7884   0.00531   0.00157  -0.1271  0.6291  0.7096  -0.9398   0.0000   0.4074
   2.700   0.7987   0.00539   0.00161  -0.1270  0.6183  0.7102  -0.9633   0.0000   0.4051
   2.800   0.8089   0.00548   0.00166  -0.1268  0.6067  0.7108  -0.9888   0.0000   0.4028
   2.900   0.8190   0.00558   0.00171  -0.1267  0.5943  0.7113  -1.0144   0.0000   0.4006
   3.000   0.8290   0.00569   0.00177  -0.1265  0.5814  0.7118  -1.0426   0.0000   0.3984
   3.100   0.8390   0.00580   0.00183  -0.1264  0.5683  0.7124  -1.0750   0.0000   0.3963
   3.200   0.8488   0.00592   0.00190  -0.1262  0.5534  0.7129  -1.1073   0.0000   0.3943
   3.300   0.8582   0.00608   0.00198  -0.1259  0.5365  0.7134  -1.1393   0.0000   0.3922
   3.400   0.8678   0.00622   0.00205  -0.1257  0.5195  0.7139  -1.1759   0.0000   0.3902
   3.500   0.8773   0.00637   0.00213  -0.1254  0.5034  0.7144  -1.2157   0.0000   0.3883
   3.600   0.8869   0.00650   0.00221  -0.1252  0.4878  0.7149  -1.2563   0.0000   0.3864
   3.700   0.8960   0.00668   0.00230  -0.1249  0.4688  0.7154  -1.2960   0.0000   0.3845
   4.000   0.9220   0.00729   0.00262  -0.1238  0.4025  0.7170  -1.4147   0.0000   0.3791
   4.100   0.9311   0.00748   0.00272  -0.1235  0.3840  0.7175  -1.4556   0.0000   0.3773
   4.200   0.9400   0.00766   0.00282  -0.1232  0.3659  0.7181  -1.5016   0.0000   0.3756
   4.300   0.9489   0.00785   0.00292  -0.1229  0.3474  0.7186  -1.5540   0.0000   0.3739
   4.400   0.9578   0.00804   0.00303  -0.1225  0.3296  0.7191  -1.6072   0.0000   0.3723
   4.500   0.9667   0.00823   0.00314  -0.1222  0.3127  0.7195  -1.6607   0.0000   0.3707
   4.600   0.9757   0.00842   0.00325  -0.1219  0.2955  0.7199  -1.7148   0.0000   0.3691
   4.700   0.9845   0.00861   0.00336  -0.1216  0.2787  0.7204  -1.7720   0.0000   0.3675
   4.800   0.9932   0.00879   0.00347  -0.1212  0.2627  0.7210  -1.8315   0.0000   0.3660
   4.900   1.0020   0.00897   0.00358  -0.1209  0.2457  0.7215  -1.8916   0.0000   0.3645
   5.000   1.0103   0.00919   0.00371  -0.1205  0.2277  0.7220  -1.9511   0.0000   0.3630
   5.100   1.0187   0.00940   0.00384  -0.1201  0.2101  0.7224  -2.0110   0.0000   0.3615
   5.200   1.0268   0.00963   0.00398  -0.1196  0.1920  0.7229  -2.0709   0.0000   0.3600
   5.300   1.0351   0.00985   0.00412  -0.1192  0.1756  0.7233  -2.1317   0.0000   0.3586
   5.400   1.0433   0.01007   0.00426  -0.1188  0.1597  0.7237  -2.1931   0.0000   0.3572
   5.500   1.0518   0.01027   0.00439  -0.1184  0.1455  0.7241  -2.2557   0.0000   0.3558
   5.600   1.0602   0.01047   0.00453  -0.1180  0.1324  0.7245  -2.3187   0.0000   0.3544
   5.700   1.0688   0.01066   0.00466  -0.1176  0.1213  0.7249  -2.3829   0.0000   0.3530
   5.800   1.0775   0.01084   0.00479  -0.1173  0.1113  0.7253  -2.4480   0.0000   0.3517
   5.900   1.0861   0.01102   0.00492  -0.1169  0.1015  0.7258  -2.5135   0.0000   0.3504
   6.000   1.0948   0.01120   0.00505  -0.1166  0.0930  0.7262  -2.5797   0.0000   0.3491
   6.100   1.1035   0.01137   0.00518  -0.1162  0.0853  0.7267  -2.6467   0.0000   0.3478
   6.200   1.1123   0.01153   0.00531  -0.1159  0.0784  0.7271  -2.7148   0.0000   0.3466
   6.300   1.1212   0.01169   0.00544  -0.1156  0.0722  0.7276  -2.7843   0.0000   0.3453
   6.400   1.1300   0.01184   0.00556  -0.1153  0.0670  0.7280  -2.8595   0.0000   0.3441
   6.500   1.1390   0.01199   0.00568  -0.1149  0.0620  0.7284  -2.9357   0.0000   0.3429
   6.600   1.1479   0.01213   0.00580  -0.1146  0.0576  0.7289  -3.0126   0.0000   0.3418
   6.700   1.1568   0.01227   0.00593  -0.1143  0.0537  0.7293  -3.0901   0.0000   0.3406
   6.800   1.1656   0.01242   0.00605  -0.1140  0.0499  0.7297  -3.1678   0.0000   0.3394
   6.900   1.1743   0.01258   0.00618  -0.1136  0.0463  0.7301  -3.2459   0.0000   0.3383
   7.000   1.1831   0.01271   0.00631  -0.1133  0.0433  0.7305  -3.3250   0.0000   0.3372
   7.100   1.1913   0.01286   0.00643  -0.1128  0.0404  0.7308  -3.4026   0.0000   0.3360
   7.200   1.1993   0.01300   0.00656  -0.1123  0.0378  0.7312  -3.4800   0.0000   0.3348
   7.300   1.2073   0.01313   0.00668  -0.1118  0.0355  0.7315  -3.5577   0.0000   0.3337
   7.400   1.2150   0.01327   0.00681  -0.1113  0.0331  0.7318  -3.6349   0.0000   0.3325
   7.500   1.2232   0.01340   0.00693  -0.1108  0.0312  0.7324  -3.7151   0.0000   0.3314
   7.600   1.2313   0.01355   0.00707  -0.1104  0.0291  0.7328  -3.7951   0.0000   0.3303
   7.700   1.2397   0.01369   0.00721  -0.1100  0.0275  0.7332  -3.8772   0.0000   0.3292
   7.800   1.2479   0.01384   0.00735  -0.1096  0.0258  0.7337  -3.9591   0.0000   0.3282
   7.900   1.2561   0.01400   0.00751  -0.1091  0.0243  0.7341  -4.0411   0.0000   0.3271
   8.000   1.2644   0.01414   0.00765  -0.1087  0.0230  0.7345  -4.1247   0.0000   0.3261
   8.100   1.2723   0.01432   0.00782  -0.1082  0.0217  0.7349  -4.2066   0.0000   0.3251
   8.200   1.2805   0.01446   0.00797  -0.1078  0.0207  0.7353  -4.2905   0.0000   0.3241
   8.300   1.2886   0.01461   0.00812  -0.1074  0.0198  0.7357  -4.3750   0.0000   0.3231
   8.400   1.2963   0.01479   0.00829  -0.1069  0.0187  0.7361  -4.4580   0.0000   0.3220
   8.500   1.3041   0.01496   0.00846  -0.1064  0.0178  0.7365  -4.5413   0.0000   0.3210
   8.600   1.3122   0.01511   0.00862  -0.1060  0.0172  0.7369  -4.6269   0.0000   0.3201
   8.700   1.3199   0.01528   0.00879  -0.1055  0.0165  0.7373  -4.7116   0.0000   0.3191
   8.800   1.3273   0.01548   0.00899  -0.1050  0.0157  0.7377  -4.7948   0.0000   0.3181
   8.900   1.3346   0.01568   0.00918  -0.1044  0.0149  0.7381  -4.8769   0.0000   0.3171
   9.000   1.3426   0.01583   0.00935  -0.1040  0.0146  0.7385  -4.9656   0.0000   0.3162
   9.100   1.3503   0.01600   0.00953  -0.1035  0.0141  0.7388  -5.0595   0.0000   0.3153
   9.200   1.3578   0.01619   0.00972  -0.1030  0.0137  0.7392  -5.1527   0.0000   0.3143
   9.300   1.3649   0.01639   0.00992  -0.1025  0.0132  0.7396  -5.2449   0.0000   0.3134
   9.400   1.3716   0.01663   0.01016  -0.1018  0.0126  0.7399  -5.3339   0.0000   0.3124
   9.500   1.3787   0.01684   0.01038  -0.1013  0.0122  0.7403  -5.4250   0.0000   0.3115
   9.600   1.3864   0.01701   0.01056  -0.1008  0.0120  0.7406  -5.5225   0.0000   0.3106
   9.700   1.3940   0.01719   0.01075  -0.1004  0.0118  0.7410  -5.6195   0.0000   0.3097
   9.800   1.4014   0.01738   0.01095  -0.0999  0.0116  0.7413  -5.7165   0.0000   0.3088
   9.900   1.4087   0.01757   0.01116  -0.0994  0.0113  0.7416  -5.8132   0.0000   0.3080
  10.000   1.4158   0.01778   0.01137  -0.0988  0.0111  0.7419  -5.9098   0.0000   0.3071
  10.100   1.4228   0.01800   0.01160  -0.0983  0.0108  0.7423  -6.0063   0.0000   0.3062
  10.200   1.4295   0.01824   0.01184  -0.0977  0.0106  0.7425  -6.1018   0.0000   0.3053
  10.300   1.4359   0.01850   0.01210  -0.0971  0.0103  0.7428  -6.1949   0.0000   0.3044
  10.500   1.4484   0.01903   0.01266  -0.0958  0.0098  0.7436  -6.3792   0.0000   0.3027
  10.600   1.4557   0.01922   0.01287  -0.0954  0.0097  0.7441  -6.4809   0.0000   0.3019
  10.700   1.4627   0.01943   0.01310  -0.0949  0.0096  0.7445  -6.5818   0.0000   0.3010
  10.800   1.4696   0.01966   0.01334  -0.0944  0.0094  0.7449  -6.6822   0.0000   0.3002
  10.900   1.4764   0.01989   0.01359  -0.0938  0.0093  0.7452  -6.7819   0.0000   0.2994
  11.000   1.4830   0.02013   0.01384  -0.0933  0.0092  0.7456  -6.8815   0.0000   0.2986
  11.100   1.4895   0.02038   0.01410  -0.0927  0.0091  0.7459  -6.9815   0.0000   0.2978
  11.200   1.4960   0.02063   0.01437  -0.0922  0.0090  0.7462  -7.0882   0.0000   0.2970
  11.300   1.5023   0.02090   0.01465  -0.0916  0.0088  0.7466  -7.1954   0.0000   0.2962
  11.400   1.5086   0.02117   0.01494  -0.0910  0.0087  0.7469  -7.3028   0.0000   0.2954
  11.500   1.5146   0.02145   0.01523  -0.0905  0.0086  0.7472  -7.4097   0.0000   0.2946
  11.600   1.5205   0.02174   0.01554  -0.0898  0.0085  0.7475  -7.5157   0.0000   0.2938
  11.700   1.5262   0.02205   0.01586  -0.0892  0.0084  0.7479  -7.6210   0.0000   0.2930
  11.800   1.5317   0.02238   0.01620  -0.0885  0.0082  0.7483  -7.7244   0.0000   0.2922
  11.900   1.5368   0.02273   0.01657  -0.0878  0.0081  0.7486  -7.8255   0.0000   0.2914
  12.000   1.5416   0.02312   0.01698  -0.0871  0.0079  0.7490  -7.9232   0.0000   0.2905
  12.100   1.5457   0.02355   0.01744  -0.0863  0.0078  0.7494  -8.0158   0.0000   0.2897
  12.200   1.5491   0.02404   0.01797  -0.0854  0.0076  0.7497  -8.1017   0.0000   0.2888
  12.300   1.5549   0.02434   0.01829  -0.0848  0.0076  0.7501  -8.2122   0.0000   0.2881
  12.400   1.5607   0.02465   0.01861  -0.0842  0.0076  0.7505  -8.3226   0.0000   0.2873
  12.500   1.5664   0.02496   0.01895  -0.0837  0.0075  0.7508  -8.4335   0.0000   0.2866
  12.600   1.5721   0.02528   0.01928  -0.0831  0.0075  0.7512  -8.5444   0.0000   0.2858
  12.700   1.5776   0.02562   0.01963  -0.0825  0.0075  0.7515  -8.6551   0.0000   0.2851
  12.800   1.5831   0.02595   0.01999  -0.0820  0.0074  0.7518  -8.7661   0.0000   0.2844
  12.900   1.5885   0.02630   0.02035  -0.0814  0.0073  0.7522  -8.8769   0.0000   0.2837
  13.000   1.5937   0.02666   0.02073  -0.0808  0.0073  0.7525  -8.9872   0.0000   0.2830
  13.100   1.5989   0.02702   0.02111  -0.0802  0.0072  0.7528  -9.0976   0.0000   0.2823
  13.200   1.6040   0.02740   0.02151  -0.0796  0.0071  0.7531  -9.2077   0.0000   0.2815
  13.300   1.6088   0.02779   0.02192  -0.0790  0.0070  0.7534  -9.3168   0.0000   0.2808
  13.400   1.6135   0.02819   0.02233  -0.0784  0.0070  0.7537  -9.4256   0.0000   0.2801
  13.500   1.6181   0.02860   0.02276  -0.0778  0.0069  0.7540  -9.5336   0.0000   0.2794
  13.600   1.6225   0.02902   0.02321  -0.0772  0.0068  0.7542  -9.6407   0.0000   0.2787
  13.700   1.6269   0.02946   0.02366  -0.0765  0.0068  0.7544  -9.7478   0.0000   0.2780
  13.800   1.6312   0.02990   0.02413  -0.0759  0.0067  0.7547  -9.8548   0.0000   0.2773
  13.900   1.6354   0.03035   0.02460  -0.0753  0.0067  0.7552  -9.9616   0.0000   0.2766
  14.000   1.6395   0.03081   0.02508  -0.0747  0.0066  0.7556  -10.0685   0.0000   0.2760
  14.100   1.6434   0.03129   0.02559  -0.0741  0.0066  0.7559  -10.1741   0.0000   0.2753
  14.200   1.6472   0.03179   0.02611  -0.0735  0.0065  0.7563  -10.2789   0.0000   0.2746
  14.300   1.6508   0.03230   0.02664  -0.0728  0.0064  0.7566  -10.3831   0.0000   0.2739
  14.400   1.6542   0.03283   0.02720  -0.0722  0.0064  0.7570  -10.4851   0.0000   0.2732
  14.500   1.6573   0.03338   0.02777  -0.0715  0.0063  0.7573  -10.5856   0.0000   0.2726
  14.600   1.6601   0.03396   0.02838  -0.0709  0.0063  0.7576  -10.6835   0.0000   0.2719
  14.700   1.6626   0.03457   0.02901  -0.0702  0.0062  0.7579  -10.7789   0.0000   0.2712
  14.800   1.6648   0.03522   0.02969  -0.0695  0.0061  0.7582  -10.8716   0.0000   0.2705
  14.900   1.6665   0.03591   0.03041  -0.0688  0.0061  0.7585  -10.9598   0.0000   0.2699
  15.000   1.6678   0.03665   0.03119  -0.0680  0.0060  0.7587  -11.0439   0.0000   0.2692
  15.100   1.6685   0.03746   0.03204  -0.0673  0.0060  0.7590  -11.1215   0.0000   0.2685
  15.200   1.6685   0.03835   0.03296  -0.0665  0.0059  0.7593  -11.1928   0.0000   0.2678
  15.300   1.6676   0.03932   0.03398  -0.0657  0.0058  0.7596  -11.2552   0.0000   0.2672
  15.400   1.6656   0.04041   0.03512  -0.0648  0.0058  0.7599  -11.3075   0.0000   0.2665
  15.500   1.6645   0.04142   0.03619  -0.0641  0.0057  0.7602  -11.3680   0.0000   0.2658
  15.600   1.6671   0.04210   0.03689  -0.0636  0.0057  0.7606  -11.4679   0.0000   0.2653
  15.700   1.6697   0.04279   0.03761  -0.0631  0.0057  0.7609  -11.5681   0.0000   0.2647
  15.800   1.6722   0.04350   0.03835  -0.0627  0.0057  0.7613  -11.6669   0.0000   0.2642
  15.900   1.6746   0.04424   0.03911  -0.0622  0.0057  0.7616  -11.7650   0.0000   0.2637
  16.000   1.6768   0.04499   0.03989  -0.0618  0.0056  0.7619  -11.8627   0.0000   0.2631
  16.100   1.6789   0.04577   0.04070  -0.0614  0.0056  0.7622  -11.9585   0.0000   0.2626
  16.200   1.6809   0.04656   0.04152  -0.0610  0.0056  0.7625  -12.0543   0.0000   0.2621
  16.300   1.6827   0.04739   0.04238  -0.0606  0.0056  0.7628  -12.1480   0.0000   0.2616
  16.400   1.6845   0.04823   0.04325  -0.0603  0.0056  0.7631  -12.2417   0.0000   0.2612
  16.500   1.6860   0.04911   0.04416  -0.0599  0.0056  0.7634  -12.3329   0.0000   0.2607
  16.600   1.6874   0.05000   0.04508  -0.0596  0.0055  0.7637  -12.4241   0.0000   0.2602
  16.700   1.6886   0.05093   0.04604  -0.0592  0.0055  0.7640  -12.5126   0.0000   0.2598
  16.800   1.6897   0.05187   0.04702  -0.0589  0.0055  0.7642  -12.6008   0.0000   0.2593
  16.900   1.6905   0.05286   0.04804  -0.0586  0.0055  0.7645  -12.6857   0.0000   0.2589
  17.000   1.6912   0.05386   0.04907  -0.0583  0.0054  0.7647  -12.7702   0.0000   0.2585
  17.100   1.6916   0.05491   0.05015  -0.0581  0.0054  0.7649  -12.8518   0.0000   0.2581
  17.200   1.6920   0.05597   0.05124  -0.0578  0.0054  0.7652  -12.9335   0.0000   0.2577
  17.300   1.6921   0.05708   0.05239  -0.0576  0.0054  0.7654  -13.0123   0.0000   0.2573
  17.400   1.6922   0.05821   0.05355  -0.0574  0.0054  0.7656  -13.0907   0.0000   0.2570
  17.500   1.6920   0.05938   0.05476  -0.0572  0.0053  0.7658  -13.1667   0.0000   0.2566
  17.600   1.6917   0.06058   0.05599  -0.0571  0.0053  0.7659  -13.2414   0.0000   0.2563
  17.800   1.6906   0.06309   0.05858  -0.0569  0.0053  0.7665  -13.3858   0.0000   0.2557
  17.900   1.6899   0.06439   0.05991  -0.0568  0.0052  0.7669  -13.4560   0.0000   0.2555
  18.000   1.6889   0.06574   0.06130  -0.0568  0.0052  0.7672  -13.5231   0.0000   0.2552
  18.100   1.6877   0.06712   0.06272  -0.0568  0.0052  0.7676  -13.5886   0.0000   0.2550
  18.200   1.6864   0.06853   0.06417  -0.0569  0.0052  0.7679  -13.6527   0.0000   0.2548
  18.300   1.6848   0.07001   0.06569  -0.0569  0.0051  0.7682  -13.7128   0.0000   0.2546
  18.400   1.6830   0.07151   0.06723  -0.0570  0.0051  0.7686  -13.7711   0.0000   0.2544
  18.500   1.6810   0.07304   0.06880  -0.0571  0.0051  0.7689  -13.8270   0.0000   0.2543
  18.600   1.6786   0.07464   0.07045  -0.0573  0.0051  0.7692  -13.8789   0.0000   0.2542
  18.700   1.6761   0.07628   0.07213  -0.0575  0.0051  0.7694  -13.9289   0.0000   0.2541
  18.800   1.6735   0.07796   0.07385  -0.0577  0.0050  0.7697  -13.9775   0.0000   0.2540
  18.900   1.6706   0.07969   0.07562  -0.0580  0.0050  0.7700  -14.0227   0.0000   0.2540
  19.000   1.6675   0.08150   0.07747  -0.0583  0.0050  0.7703  -14.0644   0.0000   0.2540
  19.100   1.6642   0.08333   0.07934  -0.0587  0.0050  0.7705  -14.1041   0.0000   0.2540
  19.200   1.6607   0.08521   0.08126  -0.0591  0.0050  0.7708  -14.1412   0.0000   0.2541
  19.300   1.6570   0.08715   0.08325  -0.0596  0.0050  0.7710  -14.1748   0.0000   0.2541
  19.400   1.6529   0.08916   0.08530  -0.0601  0.0049  0.7712  -14.2039   0.0000   0.2543
  19.500   1.6487   0.09122   0.08740  -0.0606  0.0049  0.7715  -14.2300   0.0000   0.2544
  19.600   1.6442   0.09332   0.08955  -0.0612  0.0049  0.7717  -14.2529   0.0000   0.2546
  19.700   1.6395   0.09548   0.09176  -0.0619  0.0049  0.7719  -14.2723   0.0000   0.2549
  19.800   1.6345   0.09770   0.09402  -0.0626  0.0049  0.7721  -14.2868   0.0000   0.2551
  19.900   1.6290   0.09999   0.09635  -0.0634  0.0049  0.7723  -14.2961   0.0000   0.2555
  20.000   1.6234   0.10234   0.09875  -0.0642  0.0049  0.7725  -14.3010   0.0000   0.2558


