xflr5 v6.32

 Calculated polar for: foil1 modified

 1 1 Reynolds number fixed          Mach number fixed         

 xtrf =   1.000 (top)        1.000 (bottom)
 Mach =   0.000     Re =    50.000 e 6     Ncrit =   9.000

  alpha     CL        CD       CDp       Cm    Top Xtr Bot Xtr   Cpmin    Chinge    XCp    
 ------- -------- --------- --------- -------- ------- ------- -------- --------- ---------
 -15.000  -1.2319   0.01026   0.00683  -0.0971  0.8307  0.0041  -17.2748   0.0000   0.1525
 -14.900  -1.2212   0.01015   0.00673  -0.0972  0.8295  0.0041  -17.0837   0.0000   0.1518
 -14.800  -1.2104   0.01005   0.00662  -0.0974  0.8281  0.0041  -16.8933   0.0000   0.1511
 -14.700  -1.1995   0.00995   0.00652  -0.0976  0.8264  0.0041  -16.7035   0.0000   0.1503
 -14.600  -1.1886   0.00985   0.00641  -0.0978  0.8254  0.0041  -16.5141   0.0000   0.1496
 -14.500  -1.1777   0.00974   0.00631  -0.0980  0.8249  0.0041  -16.3252   0.0000   0.1488
 -14.400  -1.1667   0.00965   0.00621  -0.0982  0.8244  0.0041  -16.1371   0.0000   0.1480
 -14.300  -1.1557   0.00955   0.00612  -0.0984  0.8237  0.0041  -15.9497   0.0000   0.1472
 -14.200  -1.1447   0.00945   0.00602  -0.0986  0.8228  0.0041  -15.7632   0.0000   0.1464
 -14.100  -1.1337   0.00936   0.00592  -0.0988  0.8217  0.0041  -15.5775   0.0000   0.1455
 -14.000  -1.1227   0.00927   0.00583  -0.0989  0.8205  0.0041  -15.3927   0.0000   0.1446
 -13.900  -1.1117   0.00918   0.00574  -0.0991  0.8191  0.0041  -15.2086   0.0000   0.1437
 -13.800  -1.1006   0.00909   0.00565  -0.0993  0.8174  0.0041  -15.0253   0.0000   0.1428
 -13.700  -1.0895   0.00900   0.00556  -0.0995  0.8164  0.0041  -14.8424   0.0000   0.1418
 -13.600  -1.0783   0.00891   0.00547  -0.0997  0.8160  0.0041  -14.6602   0.0000   0.1408
 -13.500  -1.0672   0.00882   0.00538  -0.0999  0.8154  0.0041  -14.4789   0.0000   0.1398
 -13.400  -1.0560   0.00873   0.00529  -0.1001  0.8145  0.0041  -14.2985   0.0000   0.1387
 -13.300  -1.0448   0.00865   0.00521  -0.1003  0.8134  0.0041  -14.1190   0.0000   0.1377
 -13.200  -1.0336   0.00857   0.00512  -0.1005  0.8121  0.0041  -13.9405   0.0000   0.1366
 -13.100  -1.0224   0.00849   0.00504  -0.1007  0.8105  0.0041  -13.7630   0.0000   0.1354
 -13.000  -1.0112   0.00841   0.00496  -0.1009  0.8086  0.0041  -13.5862   0.0000   0.1343
 -12.900  -1.0000   0.00833   0.00488  -0.1011  0.8074  0.0041  -13.4100   0.0000   0.1331
 -12.800  -0.9887   0.00825   0.00480  -0.1013  0.8069  0.0041  -13.2344   0.0000   0.1318
 -12.700  -0.9773   0.00817   0.00472  -0.1015  0.8061  0.0041  -13.0599   0.0000   0.1306
 -12.600  -0.9663   0.00803   0.00458  -0.1017  0.8050  0.0047  -12.9205   0.0000   0.1293
 -12.500  -0.9550   0.00795   0.00450  -0.1019  0.8036  0.0048  -12.7497   0.0000   0.1279
 -12.400  -0.9438   0.00787   0.00442  -0.1021  0.8019  0.0049  -12.5795   0.0000   0.1266
 -12.300  -0.9325   0.00779   0.00434  -0.1023  0.7998  0.0049  -12.4096   0.0000   0.1252
 -12.200  -0.9211   0.00771   0.00426  -0.1025  0.7983  0.0050  -12.2401   0.0000   0.1237
 -12.100  -0.9097   0.00763   0.00418  -0.1028  0.7977  0.0051  -12.0710   0.0000   0.1222
 -12.000  -0.8984   0.00755   0.00411  -0.1030  0.7968  0.0051  -11.9027   0.0000   0.1206
 -11.900  -0.8870   0.00747   0.00403  -0.1032  0.7956  0.0052  -11.7351   0.0000   0.1190
 -11.800  -0.8756   0.00740   0.00396  -0.1034  0.7941  0.0052  -11.5685   0.0000   0.1174
 -11.700  -0.8642   0.00733   0.00389  -0.1036  0.7924  0.0053  -11.4028   0.0000   0.1157
 -11.600  -0.8528   0.00726   0.00382  -0.1038  0.7902  0.0053  -11.2377   0.0000   0.1140
 -11.500  -0.8414   0.00720   0.00376  -0.1040  0.7889  0.0054  -11.0731   0.0000   0.1121
 -11.400  -0.8299   0.00713   0.00369  -0.1042  0.7883  0.0054  -10.9092   0.0000   0.1103
 -11.300  -0.8184   0.00706   0.00363  -0.1044  0.7874  0.0055  -10.7464   0.0000   0.1083
 -11.200  -0.8069   0.00700   0.00357  -0.1046  0.7859  0.0055  -10.5847   0.0000   0.1063
 -11.100  -0.7954   0.00694   0.00351  -0.1048  0.7839  0.0055  -10.4243   0.0000   0.1043
 -11.000  -0.7840   0.00689   0.00345  -0.1050  0.7815  0.0055  -10.2650   0.0000   0.1022
 -10.900  -0.7724   0.00683   0.00339  -0.1052  0.7796  0.0056  -10.1063   0.0000   0.1000
 -10.800  -0.7609   0.00677   0.00333  -0.1055  0.7788  0.0056  -9.9483   0.0000   0.0977
 -10.700  -0.7493   0.00671   0.00328  -0.1057  0.7775  0.0056  -9.7915   0.0000   0.0954
 -10.600  -0.7378   0.00666   0.00322  -0.1059  0.7757  0.0056  -9.6360   0.0000   0.0930
 -10.500  -0.7263   0.00661   0.00317  -0.1061  0.7734  0.0056  -9.4817   0.0000   0.0905
 -10.400  -0.7148   0.00656   0.00312  -0.1063  0.7707  0.0056  -9.3284   0.0000   0.0880
 -10.300  -0.7032   0.00650   0.00306  -0.1065  0.7697  0.0056  -9.1756   0.0000   0.0853
 -10.200  -0.6916   0.00645   0.00301  -0.1067  0.7686  0.0057  -9.0239   0.0000   0.0825
 -10.100  -0.6800   0.00640   0.00296  -0.1069  0.7666  0.0057  -8.8735   0.0000   0.0796
 -10.000  -0.6685   0.00635   0.00291  -0.1071  0.7639  0.0057  -8.7246   0.0000   0.0767
  -9.900  -0.6569   0.00631   0.00286  -0.1073  0.7608  0.0057  -8.5766   0.0000   0.0736
  -9.800  -0.6453   0.00626   0.00281  -0.1075  0.7596  0.0057  -8.4290   0.0000   0.0704
  -9.700  -0.6337   0.00621   0.00276  -0.1077  0.7578  0.0057  -8.2828   0.0000   0.0670
  -9.600  -0.6221   0.00617   0.00272  -0.1079  0.7552  0.0057  -8.1380   0.0000   0.0636
  -9.500  -0.6106   0.00612   0.00267  -0.1081  0.7520  0.0057  -7.9943   0.0000   0.0600
  -9.400  -0.5989   0.00608   0.00262  -0.1083  0.7502  0.0057  -7.8511   0.0000   0.0563
  -9.300  -0.5872   0.00603   0.00258  -0.1085  0.7488  0.0057  -7.7090   0.0000   0.0524
  -9.200  -0.5757   0.00599   0.00253  -0.1087  0.7462  0.0057  -7.5684   0.0000   0.0483
  -9.100  -0.5641   0.00595   0.00249  -0.1089  0.7430  0.0057  -7.4291   0.0000   0.0441
  -9.000  -0.5524   0.00591   0.00244  -0.1091  0.7406  0.0057  -7.2903   0.0000   0.0397
  -8.900  -0.5408   0.00586   0.00240  -0.1093  0.7393  0.0057  -7.1524   0.0000   0.0351
  -8.800  -0.5291   0.00582   0.00236  -0.1095  0.7369  0.0057  -7.0160   0.0000   0.0302
  -8.700  -0.5176   0.00579   0.00232  -0.1097  0.7336  0.0057  -6.8811   0.0000   0.0252
  -8.600  -0.5059   0.00575   0.00227  -0.1099  0.7307  0.0057  -6.7468   0.0000   0.0200
  -8.500  -0.4942   0.00570   0.00223  -0.1101  0.7291  0.0058  -6.6133   0.0000   0.0144
  -8.400  -0.4826   0.00567   0.00219  -0.1103  0.7262  0.0058  -6.4814   0.0000   0.0086
  -8.300  -0.4710   0.00564   0.00216  -0.1105  0.7224  0.0058  -6.3509   0.0000   0.0026
  -8.200  -0.4593   0.00560   0.00212  -0.1107  0.7200  0.0058  -6.2209   0.0000  -0.0039
  -8.100  -0.4477   0.00556   0.00208  -0.1109  0.7172  0.0058  -6.0922   0.0000  -0.0106
  -8.000  -0.4362   0.00554   0.00204  -0.1111  0.7123  0.0058  -5.9653   0.0000  -0.0176
  -7.900  -0.4245   0.00550   0.00200  -0.1113  0.7093  0.0058  -5.8387   0.0000  -0.0251
  -7.800  -0.4129   0.00547   0.00197  -0.1115  0.7056  0.0058  -5.7137   0.0000  -0.0330
  -7.700  -0.4013   0.00545   0.00194  -0.1117  0.7010  0.0058  -5.5899   0.0000  -0.0413
  -7.600  -0.3896   0.00541   0.00190  -0.1119  0.6987  0.0058  -5.4665   0.0000  -0.0503
  -7.500  -0.3780   0.00539   0.00187  -0.1120  0.6947  0.0058  -5.3448   0.0000  -0.0597
  -7.400  -0.3664   0.00536   0.00183  -0.1122  0.6898  0.0058  -5.2243   0.0000  -0.0696
  -7.300  -0.3547   0.00533   0.00180  -0.1124  0.6868  0.0058  -5.1045   0.0000  -0.0804
  -7.200  -0.3432   0.00531   0.00177  -0.1126  0.6812  0.0058  -4.9867   0.0000  -0.0916
  -7.100  -0.3316   0.00529   0.00174  -0.1128  0.6775  0.0058  -4.8692   0.0000  -0.1039
  -7.000  -0.3200   0.00527   0.00171  -0.1129  0.6725  0.0058  -4.7535   0.0000  -0.1168
  -6.900  -0.3084   0.00524   0.00168  -0.1131  0.6680  0.0058  -4.6384   0.0000  -0.1309
  -6.800  -0.2968   0.00522   0.00165  -0.1133  0.6636  0.0058  -4.5246   0.0000  -0.1461
  -6.700  -0.2852   0.00520   0.00162  -0.1135  0.6577  0.0058  -4.4122   0.0000  -0.1623
  -6.600  -0.2736   0.00518   0.00160  -0.1136  0.6533  0.0058  -4.3007   0.0000  -0.1801
  -6.500  -0.2621   0.00517   0.00157  -0.1138  0.6469  0.0058  -4.1906   0.0000  -0.1993
  -6.400  -0.2505   0.00515   0.00154  -0.1140  0.6422  0.0058  -4.0814   0.0000  -0.2204
  -6.300  -0.2390   0.00514   0.00152  -0.1141  0.6359  0.0058  -3.9736   0.0000  -0.2434
  -6.200  -0.2274   0.00512   0.00149  -0.1143  0.6309  0.0058  -3.8668   0.0000  -0.2688
  -6.100  -0.2159   0.00511   0.00147  -0.1145  0.6249  0.0058  -3.7611   0.0000  -0.2969
  -6.000  -0.2043   0.00510   0.00145  -0.1146  0.6194  0.0058  -3.6567   0.0000  -0.3282
  -5.900  -0.1928   0.00509   0.00142  -0.1148  0.6128  0.0058  -3.5534   0.0000  -0.3632
  -5.800  -0.1813   0.00508   0.00140  -0.1149  0.6059  0.0058  -3.4516   0.0000  -0.4023
  -5.700  -0.1697   0.00507   0.00138  -0.1151  0.6007  0.0058  -3.3501   0.0000  -0.4476
  -5.600  -0.1582   0.00506   0.00136  -0.1153  0.5931  0.0058  -3.2506   0.0000  -0.4985
  -5.500  -0.1466   0.00505   0.00134  -0.1154  0.5880  0.0058  -3.1516   0.0000  -0.5582
  -5.400  -0.1351   0.00505   0.00132  -0.1156  0.5806  0.0058  -3.0542   0.0000  -0.6275
  -5.300  -0.1236   0.00504   0.00130  -0.1157  0.5747  0.0058  -2.9578   0.0000  -0.7099
  -5.200  -0.1120   0.00503   0.00128  -0.1159  0.5688  0.0058  -2.8622   0.0000  -0.8100
  -5.100  -0.1005   0.00503   0.00127  -0.1160  0.5630  0.0058  -2.7681   0.0000  -0.9323
  -5.000  -0.0889   0.00502   0.00124  -0.1162  0.5572  0.0058  -2.6747   0.0000  -1.0878
  -4.900  -0.0774   0.00501   0.00123  -0.1164  0.5497  0.0066  -2.5949   0.0000  -1.2863
  -4.800  -0.0659   0.00500   0.00121  -0.1165  0.5436  0.0069  -2.5127   0.0000  -1.5577
  -4.700  -0.0544   0.00500   0.00119  -0.1167  0.5351  0.0072  -2.4314   0.0000  -1.9386
  -4.600  -0.0430   0.00501   0.00118  -0.1168  0.5261  0.0074  -2.3508   0.0000  -2.5188
  -4.500  -0.0316   0.00501   0.00116  -0.1169  0.5192  0.0076  -2.2705   0.0000  -3.5290
  -4.400  -0.0201   0.00501   0.00115  -0.1171  0.5116  0.0077  -2.1910   0.0000  -5.7026
  -4.300  -0.0086   0.00501   0.00114  -0.1172  0.5035  0.0078  -2.1128   0.0000  -13.5973
  -4.200   0.0030   0.00501   0.00112  -0.1174  0.4980  0.0078  -2.0350   0.0000  40.6203
  -4.100   0.0144   0.00502   0.00111  -0.1175  0.4902  0.0079  -1.9586   0.0000   8.5348
  -4.000   0.0259   0.00502   0.00110  -0.1177  0.4840  0.0079  -1.8830   0.0000   4.8652
  -3.900   0.0375   0.00502   0.00109  -0.1178  0.4784  0.0079  -1.8081   0.0000   3.4404
  -3.800   0.0491   0.00502   0.00108  -0.1180  0.4739  0.0079  -1.7341   0.0000   2.6899
  -3.700   0.0608   0.00501   0.00107  -0.1181  0.4691  0.0082  -1.6615   0.0000   2.2244
  -3.600   0.0725   0.00500   0.00105  -0.1183  0.4670  0.0087  -1.5895   0.0000   1.9061
  -3.500   0.0843   0.00498   0.00104  -0.1185  0.4659  0.0092  -1.5182   0.0000   1.6760
  -3.400   0.0960   0.00497   0.00102  -0.1187  0.4633  0.0096  -1.4481   0.0000   1.5036
  -3.300   0.1077   0.00495   0.00101  -0.1189  0.4609  0.0100  -1.3789   0.0000   1.3684
  -3.200   0.1195   0.00494   0.00100  -0.1191  0.4586  0.0104  -1.3104   0.0000   1.2595
  -3.100   0.1313   0.00492   0.00098  -0.1193  0.4571  0.0123  -1.2431   0.0000   1.1698
  -3.000   0.1430   0.00490   0.00097  -0.1195  0.4554  0.0131  -1.1766   0.0000   1.0950
  -2.900   0.1547   0.00489   0.00096  -0.1197  0.4527  0.0152  -1.1115   0.0000   1.0319
  -2.800   0.1663   0.00489   0.00095  -0.1198  0.4467  0.0161  -1.0476   0.0000   0.9782
  -2.700   0.1779   0.00488   0.00094  -0.1200  0.4430  0.0173  -0.9843   0.0000   0.9311
  -2.600   0.1894   0.00489   0.00094  -0.1201  0.4351  0.0189  -0.9228   0.0000   0.8904
  -2.500   0.2009   0.00490   0.00093  -0.1203  0.4299  0.0197  -0.8616   0.0000   0.8540
  -2.400   0.2124   0.00491   0.00093  -0.1204  0.4219  0.0220  -0.8019   0.0000   0.8218
  -2.300   0.2237   0.00492   0.00093  -0.1205  0.4127  0.0235  -0.7434   0.0000   0.7930
  -2.200   0.2351   0.00493   0.00093  -0.1206  0.4047  0.0269  -0.6858   0.0000   0.7670
  -2.100   0.2466   0.00494   0.00092  -0.1208  0.3974  0.0307  -0.6289   0.0000   0.7432
  -2.000   0.2579   0.00496   0.00092  -0.1209  0.3885  0.0325  -0.5730   0.0000   0.7217
  -1.900   0.2693   0.00497   0.00093  -0.1210  0.3791  0.0357  -0.5434   0.0000   0.7021
  -1.800   0.2806   0.00499   0.00093  -0.1211  0.3713  0.0393  -0.5484   0.0000   0.6839
  -1.700   0.2922   0.00499   0.00093  -0.1213  0.3649  0.0422  -0.5534   0.0000   0.6671
  -1.600   0.3036   0.00501   0.00093  -0.1214  0.3565  0.0472  -0.5583   0.0000   0.6517
  -1.500   0.3150   0.00501   0.00093  -0.1215  0.3505  0.0535  -0.5633   0.0000   0.6373
  -1.400   0.3266   0.00501   0.00093  -0.1217  0.3441  0.0572  -0.5687   0.0000   0.6239
  -1.300   0.3379   0.00503   0.00094  -0.1218  0.3356  0.0625  -0.5742   0.0000   0.6115
  -1.200   0.3494   0.00503   0.00094  -0.1219  0.3294  0.0720  -0.5798   0.0000   0.5999
  -1.100   0.3608   0.00504   0.00094  -0.1221  0.3223  0.0769  -0.5853   0.0000   0.5889
  -1.000   0.3721   0.00506   0.00095  -0.1222  0.3121  0.0835  -0.5907   0.0000   0.5788
  -0.900   0.3834   0.00508   0.00096  -0.1223  0.3022  0.0917  -0.5962   0.0000   0.5692
  -0.800   0.3947   0.00508   0.00096  -0.1224  0.2923  0.1071  -0.6020   0.0000   0.5602
  -0.700   0.4060   0.00509   0.00097  -0.1225  0.2824  0.1211  -0.6079   0.0000   0.5517
  -0.600   0.4173   0.00510   0.00098  -0.1226  0.2740  0.1346  -0.6138   0.0000   0.5437
  -0.500   0.4289   0.00509   0.00099  -0.1228  0.2686  0.1475  -0.6197   0.0000   0.5360
  -0.400   0.4404   0.00509   0.00099  -0.1230  0.2621  0.1621  -0.6257   0.0000   0.5287
  -0.300   0.4520   0.00508   0.00099  -0.1231  0.2596  0.1707  -0.6316   0.0000   0.5218
  -0.200   0.4634   0.00510   0.00101  -0.1233  0.2541  0.1752  -0.6376   0.0000   0.5152
  -0.100   0.4751   0.00510   0.00101  -0.1234  0.2509  0.1828  -0.6435   0.0000   0.5089
   0.000   0.4866   0.00509   0.00102  -0.1236  0.2465  0.1970  -0.6495   0.0000   0.5030
   0.100   0.4982   0.00507   0.00102  -0.1238  0.2414  0.2187  -0.6555   0.0000   0.4973
   0.300   0.5211   0.00505   0.00104  -0.1241  0.2299  0.2551  -0.6694   0.0000   0.4868
   0.400   0.5324   0.00508   0.00106  -0.1242  0.2220  0.2614  -0.6765   0.0000   0.4818
   0.500   0.5437   0.00512   0.00108  -0.1243  0.2141  0.2647  -0.6840   0.0000   0.4770
   0.600   0.5551   0.00514   0.00109  -0.1244  0.2087  0.2713  -0.6916   0.0000   0.4724
   0.700   0.5665   0.00516   0.00111  -0.1246  0.2026  0.2742  -0.6992   0.0000   0.4680
   0.800   0.5778   0.00519   0.00113  -0.1247  0.1951  0.2800  -0.7074   0.0000   0.4638
   0.900   0.5891   0.00523   0.00114  -0.1248  0.1892  0.2835  -0.7158   0.0000   0.4597
   1.000   0.6004   0.00525   0.00116  -0.1249  0.1825  0.2906  -0.7251   0.0000   0.4558
   1.100   0.6117   0.00528   0.00118  -0.1250  0.1757  0.2974  -0.7343   0.0000   0.4520
   1.200   0.6229   0.00532   0.00120  -0.1251  0.1664  0.3072  -0.7435   0.0000   0.4484
   1.300   0.6340   0.00535   0.00123  -0.1252  0.1572  0.3201  -0.7531   0.0000   0.4449
   1.500   0.6562   0.00541   0.00128  -0.1253  0.1354  0.3546  -0.7739   0.0000   0.4383
   1.600   0.6674   0.00542   0.00130  -0.1255  0.1271  0.3733  -0.7842   0.0000   0.4352
   1.700   0.6787   0.00543   0.00133  -0.1256  0.1204  0.3916  -0.7948   0.0000   0.4321
   1.800   0.6901   0.00544   0.00135  -0.1257  0.1162  0.4071  -0.8066   0.0000   0.4292
   1.900   0.7016   0.00545   0.00136  -0.1259  0.1121  0.4195  -0.8183   0.0000   0.4263
   2.000   0.7128   0.00547   0.00139  -0.1260  0.1057  0.4315  -0.8300   0.0000   0.4236
   2.100   0.7241   0.00550   0.00141  -0.1261  0.1013  0.4429  -0.8417   0.0000   0.4209
   2.200   0.7356   0.00550   0.00143  -0.1262  0.0983  0.4537  -0.8540   0.0000   0.4182
   2.300   0.7470   0.00551   0.00145  -0.1264  0.0960  0.4654  -0.8675   0.0000   0.4157
   2.400   0.7584   0.00553   0.00147  -0.1265  0.0922  0.4772  -0.8857   0.0000   0.4133
   2.500   0.7699   0.00553   0.00149  -0.1267  0.0910  0.4890  -0.9057   0.0000   0.4109
   2.600   0.7811   0.00555   0.00152  -0.1268  0.0868  0.5011  -0.9270   0.0000   0.4085
   2.700   0.7925   0.00557   0.00154  -0.1269  0.0839  0.5121  -0.9525   0.0000   0.4063
   2.800   0.8037   0.00560   0.00157  -0.1270  0.0787  0.5235  -0.9790   0.0000   0.4041
   2.900   0.8149   0.00563   0.00160  -0.1271  0.0730  0.5337  -1.0055   0.0000   0.4019
   3.000   0.8260   0.00567   0.00164  -0.1271  0.0679  0.5432  -1.0368   0.0000   0.3998
   3.100   0.8371   0.00571   0.00167  -0.1272  0.0629  0.5522  -1.0706   0.0000   0.3977
   3.200   0.8483   0.00574   0.00170  -0.1273  0.0594  0.5611  -1.1050   0.0000   0.3957
   3.300   0.8596   0.00577   0.00173  -0.1274  0.0561  0.5700  -1.1405   0.0000   0.3938
   3.400   0.8708   0.00580   0.00176  -0.1275  0.0547  0.5758  -1.1837   0.0000   0.3919
   3.500   0.8820   0.00584   0.00179  -0.1276  0.0510  0.5827  -1.2268   0.0000   0.3900
   3.600   0.8931   0.00588   0.00183  -0.1277  0.0484  0.5864  -1.2704   0.0000   0.3882
   3.700   0.9042   0.00593   0.00186  -0.1277  0.0445  0.5921  -1.3143   0.0000   0.3864
   3.800   0.9153   0.00598   0.00190  -0.1278  0.0407  0.5955  -1.3585   0.0000   0.3847
   3.900   0.9263   0.00603   0.00195  -0.1278  0.0370  0.6006  -1.4029   0.0000   0.3830
   4.000   0.9375   0.00607   0.00198  -0.1279  0.0354  0.6052  -1.4483   0.0000   0.3813
   4.100   0.9485   0.00612   0.00202  -0.1279  0.0323  0.6071  -1.4936   0.0000   0.3796
   4.200   0.9596   0.00617   0.00206  -0.1280  0.0308  0.6108  -1.5471   0.0000   0.3780
   4.300   0.9707   0.00621   0.00210  -0.1281  0.0287  0.6150  -1.6059   0.0000   0.3765
   4.400   0.9819   0.00624   0.00213  -0.1282  0.0281  0.6176  -1.6658   0.0000   0.3750
   4.500   0.9929   0.00630   0.00217  -0.1282  0.0265  0.6188  -1.7302   0.0000   0.3734
   4.600   1.0040   0.00634   0.00221  -0.1283  0.0247  0.6225  -1.7966   0.0000   0.3720
   4.700   1.0151   0.00639   0.00225  -0.1283  0.0236  0.6262  -1.8638   0.0000   0.3705
   4.800   1.0260   0.00644   0.00229  -0.1284  0.0213  0.6287  -1.9313   0.0000   0.3691
   5.100   1.0590   0.00659   0.00242  -0.1285  0.0173  0.6371  -2.1389   0.0000   0.3650
   5.200   1.0699   0.00665   0.00247  -0.1285  0.0160  0.6396  -2.2093   0.0000   0.3637
   5.300   1.0809   0.00670   0.00251  -0.1286  0.0150  0.6408  -2.2811   0.0000   0.3624
   5.400   1.0919   0.00675   0.00255  -0.1286  0.0146  0.6415  -2.3536   0.0000   0.3611
   5.500   1.1028   0.00680   0.00260  -0.1286  0.0141  0.6439  -2.4267   0.0000   0.3599
   5.600   1.1138   0.00685   0.00265  -0.1287  0.0135  0.6465  -2.5005   0.0000   0.3586
   5.700   1.1247   0.00689   0.00269  -0.1287  0.0129  0.6486  -2.5751   0.0000   0.3574
   5.800   1.1357   0.00694   0.00273  -0.1288  0.0123  0.6503  -2.6507   0.0000   0.3562
   5.900   1.1467   0.00699   0.00277  -0.1288  0.0123  0.6514  -2.7323   0.0000   0.3551
   6.000   1.1577   0.00703   0.00281  -0.1288  0.0122  0.6520  -2.8161   0.0000   0.3539
   6.100   1.1686   0.00708   0.00285  -0.1289  0.0120  0.6525  -2.9007   0.0000   0.3528
   6.200   1.1794   0.00714   0.00291  -0.1289  0.0116  0.6531  -2.9857   0.0000   0.3517
   6.300   1.1901   0.00721   0.00297  -0.1289  0.0103  0.6552  -3.0704   0.0000   0.3506
   6.400   1.2009   0.00727   0.00302  -0.1289  0.0097  0.6572  -3.1571   0.0000   0.3495
   6.500   1.2116   0.00733   0.00307  -0.1289  0.0092  0.6589  -3.2443   0.0000   0.3484
   6.600   1.2223   0.00739   0.00313  -0.1289  0.0086  0.6603  -3.3319   0.0000   0.3473
   6.700   1.2330   0.00745   0.00318  -0.1289  0.0080  0.6615  -3.4209   0.0000   0.3463
   6.800   1.2438   0.00751   0.00323  -0.1289  0.0076  0.6623  -3.5110   0.0000   0.3453
   6.900   1.2545   0.00756   0.00328  -0.1289  0.0075  0.6629  -3.6021   0.0000   0.3443
   7.000   1.2652   0.00762   0.00334  -0.1289  0.0073  0.6634  -3.6938   0.0000   0.3433
   7.100   1.2759   0.00769   0.00339  -0.1289  0.0071  0.6637  -3.7860   0.0000   0.3423
   7.200   1.2865   0.00775   0.00345  -0.1288  0.0069  0.6639  -3.8789   0.0000   0.3413
   7.300   1.2971   0.00782   0.00351  -0.1288  0.0066  0.6649  -3.9727   0.0000   0.3403
   7.400   1.3077   0.00788   0.00356  -0.1288  0.0063  0.6665  -4.0673   0.0000   0.3394
   7.500   1.3183   0.00794   0.00362  -0.1288  0.0060  0.6681  -4.1628   0.0000   0.3384
   7.600   1.3289   0.00800   0.00368  -0.1288  0.0057  0.6694  -4.2592   0.0000   0.3375
   7.700   1.3395   0.00806   0.00373  -0.1287  0.0057  0.6706  -4.3568   0.0000   0.3366
   7.800   1.3501   0.00811   0.00379  -0.1287  0.0057  0.6717  -4.4552   0.0000   0.3357
   7.900   1.3607   0.00817   0.00384  -0.1287  0.0057  0.6725  -4.5544   0.0000   0.3348
   8.000   1.3712   0.00823   0.00390  -0.1287  0.0057  0.6732  -4.6543   0.0000   0.3339
   8.100   1.3817   0.00830   0.00396  -0.1286  0.0056  0.6738  -4.7550   0.0000   0.3330
   8.200   1.3922   0.00836   0.00401  -0.1286  0.0056  0.6742  -4.8564   0.0000   0.3322
   8.300   1.4027   0.00842   0.00407  -0.1286  0.0055  0.6745  -4.9585   0.0000   0.3313
   8.400   1.4130   0.00849   0.00414  -0.1285  0.0055  0.6748  -5.0612   0.0000   0.3304
   8.500   1.4234   0.00857   0.00420  -0.1284  0.0053  0.6750  -5.1644   0.0000   0.3296
   8.600   1.4336   0.00864   0.00427  -0.1284  0.0051  0.6751  -5.2678   0.0000   0.3288
   8.700   1.4437   0.00872   0.00435  -0.1283  0.0049  0.6753  -5.3716   0.0000   0.3279
   8.800   1.4539   0.00880   0.00442  -0.1282  0.0047  0.6762  -5.4823   0.0000   0.3271
   8.900   1.4641   0.00888   0.00449  -0.1281  0.0046  0.6773  -5.5956   0.0000   0.3263
   9.000   1.4743   0.00895   0.00456  -0.1280  0.0044  0.6784  -5.7098   0.0000   0.3255
   9.100   1.4845   0.00902   0.00462  -0.1279  0.0042  0.6795  -5.8249   0.0000   0.3246
   9.200   1.4947   0.00909   0.00469  -0.1278  0.0041  0.6804  -5.9408   0.0000   0.3239
   9.300   1.5048   0.00917   0.00476  -0.1277  0.0040  0.6812  -6.0576   0.0000   0.3231
   9.400   1.5150   0.00924   0.00483  -0.1276  0.0040  0.6820  -6.1757   0.0000   0.3223
   9.500   1.5251   0.00931   0.00490  -0.1275  0.0040  0.6827  -6.2945   0.0000   0.3215
   9.600   1.5351   0.00938   0.00497  -0.1274  0.0040  0.6833  -6.4141   0.0000   0.3207
   9.700   1.5452   0.00946   0.00504  -0.1273  0.0040  0.6839  -6.5344   0.0000   0.3200
   9.800   1.5552   0.00953   0.00511  -0.1272  0.0040  0.6844  -6.6555   0.0000   0.3192
   9.900   1.5651   0.00961   0.00518  -0.1271  0.0040  0.6848  -6.7773   0.0000   0.3185
  10.000   1.5750   0.00968   0.00526  -0.1270  0.0040  0.6851  -6.8998   0.0000   0.3177
  10.100   1.5849   0.00976   0.00533  -0.1268  0.0040  0.6854  -7.0231   0.0000   0.3170
  10.200   1.5948   0.00984   0.00541  -0.1267  0.0040  0.6856  -7.1470   0.0000   0.3162
  10.300   1.6046   0.00992   0.00548  -0.1265  0.0040  0.6858  -7.2716   0.0000   0.3155
  10.400   1.6143   0.01000   0.00556  -0.1264  0.0040  0.6860  -7.3969   0.0000   0.3147
  10.500   1.6240   0.01008   0.00564  -0.1262  0.0040  0.6861  -7.5300   0.0000   0.3140
  10.600   1.6336   0.01017   0.00572  -0.1260  0.0039  0.6862  -7.6646   0.0000   0.3133
  10.700   1.6432   0.01025   0.00580  -0.1258  0.0039  0.6863  -7.8000   0.0000   0.3125
  10.800   1.6528   0.01034   0.00588  -0.1256  0.0039  0.6864  -7.9359   0.0000   0.3118
  10.900   1.6622   0.01043   0.00597  -0.1254  0.0038  0.6868  -8.0724   0.0000   0.3111
  11.000   1.6716   0.01052   0.00606  -0.1252  0.0038  0.6876  -8.2093   0.0000   0.3104
  11.100   1.6809   0.01062   0.00615  -0.1250  0.0037  0.6885  -8.3465   0.0000   0.3097
  11.200   1.6901   0.01072   0.00625  -0.1247  0.0036  0.6894  -8.4840   0.0000   0.3089
  11.300   1.6992   0.01082   0.00635  -0.1244  0.0036  0.6903  -8.6218   0.0000   0.3082
  11.400   1.7082   0.01092   0.00645  -0.1242  0.0035  0.6911  -8.7600   0.0000   0.3075
  11.500   1.7171   0.01103   0.00655  -0.1239  0.0034  0.6918  -8.8988   0.0000   0.3068
  11.600   1.7261   0.01113   0.00665  -0.1236  0.0033  0.6925  -9.0382   0.0000   0.3060
  11.700   1.7349   0.01124   0.00675  -0.1233  0.0032  0.6931  -9.1783   0.0000   0.3053
  11.800   1.7435   0.01134   0.00685  -0.1229  0.0031  0.6937  -9.3171   0.0000   0.3046
  11.900   1.7509   0.01143   0.00695  -0.1223  0.0031  0.6942  -9.4493   0.0000   0.3038
  12.000   1.7586   0.01153   0.00704  -0.1217  0.0030  0.6947  -9.5837   0.0000   0.3030
  12.100   1.7664   0.01164   0.00715  -0.1212  0.0029  0.6952  -9.7199   0.0000   0.3022
  12.200   1.7742   0.01174   0.00726  -0.1207  0.0028  0.6956  -9.8565   0.0000   0.3014
  12.300   1.7818   0.01185   0.00736  -0.1201  0.0027  0.6959  -9.9933   0.0000   0.3007
  12.400   1.7894   0.01197   0.00748  -0.1196  0.0026  0.6962  -10.1302   0.0000   0.2999
  12.500   1.7970   0.01208   0.00759  -0.1190  0.0026  0.6964  -10.2685   0.0000   0.2991
  12.600   1.8045   0.01219   0.00770  -0.1185  0.0026  0.6967  -10.4071   0.0000   0.2984
  12.700   1.8120   0.01231   0.00781  -0.1179  0.0026  0.6968  -10.5461   0.0000   0.2976
  12.800   1.8194   0.01242   0.00793  -0.1173  0.0026  0.6970  -10.6854   0.0000   0.2969
  12.900   1.8267   0.01254   0.00805  -0.1168  0.0026  0.6971  -10.8253   0.0000   0.2961
  13.000   1.8340   0.01267   0.00817  -0.1162  0.0026  0.6972  -10.9656   0.0000   0.2954
  13.100   1.8413   0.01279   0.00830  -0.1156  0.0026  0.6973  -11.1064   0.0000   0.2946
  13.200   1.8486   0.01292   0.00843  -0.1151  0.0026  0.6974  -11.2479   0.0000   0.2939
  13.300   1.8558   0.01306   0.00856  -0.1145  0.0026  0.6975  -11.3896   0.0000   0.2931
  13.400   1.8629   0.01319   0.00869  -0.1139  0.0026  0.6976  -11.5319   0.0000   0.2924
  13.500   1.8701   0.01333   0.00883  -0.1134  0.0026  0.6976  -11.6750   0.0000   0.2917
  13.600   1.8772   0.01347   0.00897  -0.1128  0.0026  0.6977  -11.8182   0.0000   0.2910
  13.700   1.8842   0.01361   0.00912  -0.1122  0.0026  0.6982  -11.9619   0.0000   0.2903
  13.800   1.8913   0.01376   0.00927  -0.1117  0.0026  0.6988  -12.1064   0.0000   0.2895
  13.900   1.8983   0.01391   0.00942  -0.1111  0.0026  0.6995  -12.2515   0.0000   0.2888
  14.000   1.9053   0.01406   0.00957  -0.1105  0.0026  0.7003  -12.3967   0.0000   0.2881
  14.100   1.9121   0.01422   0.00973  -0.1099  0.0026  0.7011  -12.5419   0.0000   0.2874
  14.200   1.9190   0.01438   0.00989  -0.1094  0.0026  0.7018  -12.6882   0.0000   0.2867
  14.300   1.9259   0.01454   0.01005  -0.1088  0.0026  0.7025  -12.8346   0.0000   0.2860
  14.400   1.9327   0.01470   0.01022  -0.1082  0.0026  0.7031  -12.9822   0.0000   0.2853
  14.500   1.9394   0.01487   0.01039  -0.1076  0.0026  0.7037  -13.1291   0.0000   0.2847
  14.600   1.9461   0.01505   0.01057  -0.1070  0.0026  0.7042  -13.2761   0.0000   0.2840
  14.700   1.9527   0.01522   0.01075  -0.1065  0.0026  0.7047  -13.4238   0.0000   0.2833
  14.800   1.9592   0.01541   0.01093  -0.1059  0.0026  0.7052  -13.5715   0.0000   0.2826
  14.900   1.9659   0.01559   0.01112  -0.1053  0.0026  0.7056  -13.7207   0.0000   0.2819
  15.000   1.9723   0.01578   0.01131  -0.1047  0.0026  0.7060  -13.8693   0.0000   0.2812
  15.100   1.9788   0.01597   0.01151  -0.1041  0.0026  0.7064  -14.0183   0.0000   0.2806
  15.200   1.9851   0.01617   0.01171  -0.1035  0.0026  0.7067  -14.1670   0.0000   0.2799
  15.300   1.9912   0.01637   0.01191  -0.1029  0.0026  0.7070  -14.3147   0.0000   0.2792
  15.400   1.9975   0.01658   0.01212  -0.1023  0.0025  0.7073  -14.4643   0.0000   0.2785
  15.500   2.0036   0.01679   0.01233  -0.1017  0.0025  0.7075  -14.6133   0.0000   0.2779
  15.600   2.0096   0.01701   0.01256  -0.1010  0.0025  0.7077  -14.7623   0.0000   0.2772
  15.700   2.0158   0.01723   0.01278  -0.1004  0.0025  0.7078  -14.9128   0.0000   0.2765
  15.800   2.0216   0.01746   0.01302  -0.0998  0.0025  0.7080  -15.0613   0.0000   0.2759
  15.900   2.0274   0.01770   0.01326  -0.0992  0.0025  0.7081  -15.2097   0.0000   0.2752
  16.000   2.0330   0.01794   0.01350  -0.0985  0.0024  0.7082  -15.3576   0.0000   0.2745
  16.100   2.0382   0.01821   0.01377  -0.0978  0.0024  0.7083  -15.5026   0.0000   0.2739
  16.200   2.0436   0.01847   0.01403  -0.0971  0.0024  0.7084  -15.6492   0.0000   0.2732
  16.300   2.0489   0.01874   0.01431  -0.0964  0.0023  0.7085  -15.7955   0.0000   0.2725
  16.400   2.0539   0.01903   0.01460  -0.0957  0.0023  0.7086  -15.9398   0.0000   0.2718
  16.500   2.0591   0.01931   0.01489  -0.0950  0.0022  0.7086  -16.0867   0.0000   0.2712
  16.600   2.0640   0.01961   0.01519  -0.0943  0.0022  0.7087  -16.2314   0.0000   0.2705
  16.700   2.0689   0.01992   0.01550  -0.0936  0.0022  0.7087  -16.3758   0.0000   0.2698
  16.800   2.0739   0.02021   0.01580  -0.0929  0.0021  0.7088  -16.5223   0.0000   0.2692
  16.900   2.0783   0.02053   0.01612  -0.0922  0.0021  0.7088  -16.6645   0.0000   0.2685
  17.000   2.0829   0.02085   0.01644  -0.0914  0.0020  0.7088  -16.8082   0.0000   0.2678
  17.100   2.0878   0.02115   0.01675  -0.0908  0.0020  0.7089  -16.9550   0.0000   0.2672
  17.200   2.0922   0.02149   0.01709  -0.0900  0.0020  0.7089  -17.0983   0.0000   0.2665
  17.300   2.0969   0.02181   0.01742  -0.0893  0.0019  0.7092  -17.2444   0.0000   0.2659
  17.400   2.1016   0.02214   0.01775  -0.0887  0.0019  0.7096  -17.3920   0.0000   0.2653
  17.500   2.1059   0.02249   0.01811  -0.0880  0.0019  0.7101  -17.5355   0.0000   0.2646
  17.600   2.1105   0.02283   0.01845  -0.0873  0.0018  0.7105  -17.6823   0.0000   0.2640
  17.700   2.1151   0.02317   0.01880  -0.0866  0.0018  0.7110  -17.8297   0.0000   0.2633
  17.800   2.1191   0.02354   0.01918  -0.0859  0.0017  0.7116  -17.9725   0.0000   0.2627
  17.900   2.1234   0.02390   0.01954  -0.0852  0.0017  0.7121  -18.1178   0.0000   0.2621
  18.000   2.1275   0.02426   0.01991  -0.0845  0.0017  0.7127  -18.2621   0.0000   0.2614
  18.100   2.1312   0.02465   0.02031  -0.0838  0.0016  0.7133  -18.4028   0.0000   0.2608
  18.200   2.1353   0.02503   0.02069  -0.0832  0.0016  0.7138  -18.5486   0.0000   0.2602
  18.300   2.1393   0.02542   0.02109  -0.0825  0.0016  0.7143  -18.6925   0.0000   0.2596
  18.400   2.1429   0.02584   0.02151  -0.0818  0.0016  0.7148  -18.8339   0.0000   0.2589
  18.500   2.1470   0.02623   0.02191  -0.0811  0.0016  0.7153  -18.9808   0.0000   0.2583
  18.600   2.1508   0.02665   0.02234  -0.0805  0.0016  0.7157  -19.1254   0.0000   0.2577
  18.700   2.1545   0.02708   0.02278  -0.0798  0.0016  0.7161  -19.2687   0.0000   0.2571
  18.800   2.1586   0.02749   0.02320  -0.0792  0.0016  0.7165  -19.4171   0.0000   0.2565
  18.900   2.1621   0.02794   0.02365  -0.0786  0.0016  0.7169  -19.5601   0.0000   0.2559
  19.000   2.1656   0.02840   0.02412  -0.0779  0.0016  0.7173  -19.7032   0.0000   0.2553
  19.100   2.1695   0.02883   0.02456  -0.0773  0.0016  0.7176  -19.8511   0.0000   0.2547
  19.200   2.1725   0.02932   0.02505  -0.0767  0.0016  0.7179  -19.9901   0.0000   0.2541
  19.300   2.1757   0.02980   0.02554  -0.0760  0.0016  0.7182  -20.1332   0.0000   0.2535
  19.400   2.1793   0.03026   0.02601  -0.0754  0.0016  0.7185  -20.2857   0.0000   0.2530
  19.500   2.1820   0.03079   0.02655  -0.0748  0.0015  0.7187  -20.4296   0.0000   0.2524
  19.600   2.1852   0.03130   0.02707  -0.0742  0.0015  0.7189  -20.5790   0.0000   0.2518
  19.700   2.1886   0.03179   0.02757  -0.0736  0.0015  0.7191  -20.7305   0.0000   0.2512
  19.800   2.1911   0.03237   0.02816  -0.0730  0.0015  0.7192  -20.8733   0.0000   0.2507
  19.900   2.1943   0.03289   0.02869  -0.0724  0.0015  0.7194  -21.0234   0.0000   0.2501
  20.000   2.1973   0.03344   0.02925  -0.0719  0.0015  0.7195  -21.1715   0.0000   0.2496


