xflr5 v6.32

 Calculated polar for: foil1 modified

 1 1 Reynolds number fixed          Mach number fixed         

 xtrf =   1.000 (top)        1.000 (bottom)
 Mach =   0.000     Re =    80.000 e 6     Ncrit =   9.000

  alpha     CL        CD       CDp       Cm    Top Xtr Bot Xtr   Cpmin    Chinge    XCp    
 ------- -------- --------- --------- -------- ------- ------- -------- --------- ---------
 -14.900  -1.2263   0.00928   0.00594  -0.0975  0.7986  0.0041  -17.2120   0.0000   0.1519
 -14.800  -1.2153   0.00919   0.00585  -0.0977  0.7979  0.0041  -17.0181   0.0000   0.1512
 -14.700  -1.2043   0.00911   0.00576  -0.0978  0.7970  0.0041  -16.8250   0.0000   0.1505
 -14.600  -1.1932   0.00902   0.00567  -0.0980  0.7955  0.0041  -16.6330   0.0000   0.1497
 -14.500  -1.1822   0.00894   0.00559  -0.0982  0.7936  0.0041  -16.4420   0.0000   0.1490
 -14.400  -1.1712   0.00886   0.00550  -0.0984  0.7914  0.0041  -16.2517   0.0000   0.1482
 -14.300  -1.1601   0.00877   0.00542  -0.0986  0.7893  0.0041  -16.0620   0.0000   0.1474
 -14.200  -1.1490   0.00869   0.00533  -0.0988  0.7887  0.0041  -15.8726   0.0000   0.1465
 -14.100  -1.1378   0.00861   0.00525  -0.0990  0.7879  0.0041  -15.6842   0.0000   0.1456
 -14.000  -1.1267   0.00853   0.00517  -0.0992  0.7865  0.0041  -15.4968   0.0000   0.1447
 -13.900  -1.1155   0.00845   0.00509  -0.0993  0.7843  0.0041  -15.3106   0.0000   0.1438
 -13.800  -1.1044   0.00838   0.00502  -0.0995  0.7818  0.0041  -15.1253   0.0000   0.1429
 -13.700  -1.0932   0.00830   0.00494  -0.0997  0.7797  0.0041  -14.9404   0.0000   0.1420
 -13.600  -1.0820   0.00822   0.00486  -0.0999  0.7788  0.0041  -14.7561   0.0000   0.1410
 -13.500  -1.0707   0.00815   0.00479  -0.1001  0.7774  0.0041  -14.5729   0.0000   0.1399
 -13.400  -1.0595   0.00808   0.00471  -0.1003  0.7750  0.0041  -14.3910   0.0000   0.1389
 -13.300  -1.0483   0.00801   0.00464  -0.1005  0.7722  0.0041  -14.2100   0.0000   0.1379
 -13.200  -1.0370   0.00794   0.00457  -0.1007  0.7701  0.0041  -14.0294   0.0000   0.1368
 -13.100  -1.0257   0.00787   0.00450  -0.1009  0.7692  0.0041  -13.8494   0.0000   0.1356
 -13.000  -1.0144   0.00780   0.00443  -0.1011  0.7673  0.0041  -13.6707   0.0000   0.1344
 -12.900  -1.0032   0.00774   0.00436  -0.1013  0.7642  0.0041  -13.4935   0.0000   0.1333
 -12.800  -0.9919   0.00767   0.00429  -0.1015  0.7610  0.0041  -13.3168   0.0000   0.1321
 -12.700  -0.9805   0.00760   0.00422  -0.1017  0.7597  0.0041  -13.1406   0.0000   0.1308
 -12.600  -0.9692   0.00754   0.00415  -0.1019  0.7576  0.0041  -12.9656   0.0000   0.1295
 -12.500  -0.9579   0.00748   0.00409  -0.1020  0.7546  0.0041  -12.7920   0.0000   0.1282
 -12.400  -0.9466   0.00742   0.00403  -0.1022  0.7513  0.0041  -12.6189   0.0000   0.1268
 -12.300  -0.9351   0.00735   0.00396  -0.1024  0.7500  0.0041  -12.4464   0.0000   0.1254
 -12.200  -0.9238   0.00728   0.00389  -0.1026  0.7477  0.0042  -12.2805   0.0000   0.1239
 -12.100  -0.9125   0.00722   0.00382  -0.1028  0.7443  0.0043  -12.1132   0.0000   0.1225
 -12.000  -0.9011   0.00716   0.00376  -0.1030  0.7409  0.0044  -11.9455   0.0000   0.1209
 -11.900  -0.8897   0.00710   0.00369  -0.1032  0.7394  0.0045  -11.7780   0.0000   0.1193
 -11.800  -0.8783   0.00704   0.00363  -0.1034  0.7364  0.0046  -11.6118   0.0000   0.1177
 -11.700  -0.8669   0.00698   0.00357  -0.1036  0.7322  0.0046  -11.4466   0.0000   0.1161
 -11.600  -0.8555   0.00692   0.00351  -0.1038  0.7300  0.0047  -11.2815   0.0000   0.1143
 -11.500  -0.8440   0.00687   0.00345  -0.1040  0.7273  0.0048  -11.1177   0.0000   0.1126
 -11.400  -0.8327   0.00681   0.00339  -0.1042  0.7233  0.0048  -10.9553   0.0000   0.1108
 -11.300  -0.8212   0.00675   0.00333  -0.1044  0.7205  0.0049  -10.7930   0.0000   0.1089
 -11.200  -0.8097   0.00670   0.00327  -0.1046  0.7183  0.0049  -10.6317   0.0000   0.1069
 -11.100  -0.7983   0.00665   0.00322  -0.1048  0.7147  0.0050  -10.4720   0.0000   0.1049
 -11.000  -0.7869   0.00659   0.00316  -0.1049  0.7106  0.0051  -10.3129   0.0000   0.1028
 -10.900  -0.7754   0.00654   0.00310  -0.1051  0.7082  0.0051  -10.1545   0.0000   0.1007
 -10.800  -0.7639   0.00648   0.00305  -0.1053  0.7052  0.0052  -9.9974   0.0000   0.0985
 -10.700  -0.7525   0.00643   0.00299  -0.1055  0.7011  0.0052  -9.8412   0.0000   0.0962
 -10.600  -0.7409   0.00638   0.00294  -0.1057  0.6992  0.0053  -9.6853   0.0000   0.0938
 -10.500  -0.7294   0.00632   0.00288  -0.1059  0.6966  0.0054  -9.5306   0.0000   0.0914
 -10.400  -0.7180   0.00628   0.00284  -0.1061  0.6920  0.0054  -9.3775   0.0000   0.0889
 -10.300  -0.7064   0.00623   0.00278  -0.1063  0.6893  0.0055  -9.2243   0.0000   0.0862
 -10.100  -0.6834   0.00615   0.00269  -0.1067  0.6813  0.0055  -8.9223   0.0000   0.0807
 -10.000  -0.6718   0.00611   0.00265  -0.1069  0.6780  0.0056  -8.7724   0.0000   0.0778
  -9.900  -0.6603   0.00607   0.00260  -0.1071  0.6741  0.0056  -8.6240   0.0000   0.0748
  -9.800  -0.6488   0.00603   0.00256  -0.1073  0.6688  0.0056  -8.4768   0.0000   0.0717
  -9.600  -0.6258   0.00597   0.00248  -0.1076  0.6597  0.0056  -8.1856   0.0000   0.0651
  -9.500  -0.6142   0.00593   0.00244  -0.1078  0.6558  0.0056  -8.0412   0.0000   0.0616
  -9.400  -0.6027   0.00590   0.00240  -0.1080  0.6511  0.0057  -7.8984   0.0000   0.0580
  -9.300  -0.5912   0.00586   0.00236  -0.1082  0.6464  0.0057  -7.7562   0.0000   0.0542
  -9.200  -0.5796   0.00583   0.00232  -0.1084  0.6423  0.0057  -7.6154   0.0000   0.0503
  -9.100  -0.5681   0.00581   0.00228  -0.1085  0.6366  0.0057  -7.4757   0.0000   0.0462
  -9.000  -0.5565   0.00577   0.00225  -0.1087  0.6334  0.0057  -7.3367   0.0000   0.0419
  -8.900  -0.5450   0.00575   0.00221  -0.1089  0.6268  0.0057  -7.1996   0.0000   0.0375
  -8.800  -0.5334   0.00572   0.00217  -0.1091  0.6233  0.0057  -7.0626   0.0000   0.0328
  -8.700  -0.5219   0.00569   0.00214  -0.1093  0.6173  0.0057  -6.9277   0.0000   0.0280
  -8.600  -0.5103   0.00566   0.00211  -0.1095  0.6127  0.0057  -6.7931   0.0000   0.0228
  -8.500  -0.4988   0.00564   0.00207  -0.1096  0.6080  0.0057  -6.6601   0.0000   0.0175
  -8.400  -0.4872   0.00561   0.00204  -0.1098  0.6030  0.0057  -6.5277   0.0000   0.0119
  -8.300  -0.4756   0.00559   0.00201  -0.1100  0.5992  0.0057  -6.3964   0.0000   0.0060
  -8.200  -0.4640   0.00556   0.00198  -0.1102  0.5929  0.0057  -6.2667   0.0000  -0.0002
  -8.100  -0.4524   0.00554   0.00194  -0.1104  0.5896  0.0057  -6.1375   0.0000  -0.0067
  -8.000  -0.4409   0.00552   0.00192  -0.1105  0.5823  0.0057  -6.0103   0.0000  -0.0135
  -7.900  -0.4293   0.00549   0.00188  -0.1107  0.5790  0.0057  -5.8832   0.0000  -0.0208
  -7.800  -0.4178   0.00548   0.00186  -0.1109  0.5719  0.0057  -5.7583   0.0000  -0.0283
  -7.600  -0.3946   0.00544   0.00180  -0.1112  0.5619  0.0058  -5.5106   0.0000  -0.0449
  -7.500  -0.3830   0.00541   0.00177  -0.1114  0.5572  0.0058  -5.3880   0.0000  -0.0541
  -7.400  -0.3714   0.00540   0.00174  -0.1116  0.5518  0.0058  -5.2672   0.0000  -0.0637
  -7.300  -0.3598   0.00538   0.00171  -0.1118  0.5461  0.0058  -5.1471   0.0000  -0.0740
  -7.200  -0.3483   0.00537   0.00169  -0.1119  0.5405  0.0058  -5.0286   0.0000  -0.0848
  -7.000  -0.3251   0.00533   0.00164  -0.1123  0.5289  0.0058  -4.7945   0.0000  -0.1091
  -6.900  -0.3135   0.00532   0.00161  -0.1125  0.5235  0.0058  -4.6788   0.0000  -0.1226
  -6.800  -0.3020   0.00530   0.00159  -0.1126  0.5181  0.0058  -4.5647   0.0000  -0.1371
  -6.700  -0.2903   0.00528   0.00156  -0.1128  0.5130  0.0058  -4.4512   0.0000  -0.1529
  -6.600  -0.2787   0.00527   0.00154  -0.1130  0.5089  0.0058  -4.3390   0.0000  -0.1700
  -6.500  -0.2671   0.00525   0.00152  -0.1132  0.5029  0.0058  -4.2280   0.0000  -0.1885
  -6.400  -0.2554   0.00523   0.00149  -0.1133  0.5002  0.0058  -4.1176   0.0000  -0.2090
  -6.300  -0.2439   0.00523   0.00148  -0.1135  0.4926  0.0058  -4.0094   0.0000  -0.2309
  -6.200  -0.2322   0.00521   0.00145  -0.1137  0.4892  0.0058  -3.9014   0.0000  -0.2556
  -6.100  -0.2207   0.00521   0.00143  -0.1138  0.4810  0.0058  -3.7955   0.0000  -0.2821
  -6.000  -0.2090   0.00519   0.00141  -0.1140  0.4771  0.0058  -3.6899   0.0000  -0.3123
  -5.900  -0.1975   0.00519   0.00140  -0.1142  0.4687  0.0058  -3.5863   0.0000  -0.3453
  -5.800  -0.1860   0.00518   0.00137  -0.1143  0.4631  0.0058  -3.4835   0.0000  -0.3828
  -5.700  -0.1744   0.00518   0.00135  -0.1145  0.4558  0.0058  -3.3818   0.0000  -0.4252
  -5.600  -0.1629   0.00518   0.00134  -0.1146  0.4489  0.0058  -3.2815   0.0000  -0.4733
  -5.400  -0.1397   0.00516   0.00131  -0.1150  0.4366  0.0058  -3.0836   0.0000  -0.5945
  -5.200  -0.1165   0.00515   0.00128  -0.1153  0.4260  0.0058  -2.8901   0.0000  -0.7643
  -5.000  -0.0932   0.00513   0.00124  -0.1157  0.4167  0.0058  -2.7010   0.0000  -1.0196
  -4.900  -0.0815   0.00512   0.00122  -0.1158  0.4120  0.0058  -2.6128   0.0000  -1.2030
  -4.700  -0.0581   0.00509   0.00119  -0.1162  0.4075  0.0062  -2.4477   0.0000  -1.7931
  -4.600  -0.0464   0.00508   0.00118  -0.1164  0.4051  0.0064  -2.3663   0.0000  -2.3117
  -4.500  -0.0346   0.00506   0.00116  -0.1166  0.4036  0.0067  -2.2853   0.0000  -3.1873
  -4.400  -0.0228   0.00504   0.00115  -0.1168  0.4023  0.0069  -2.2050   0.0000  -4.9719
  -4.300  -0.0110   0.00502   0.00113  -0.1170  0.4015  0.0071  -2.1256   0.0000  -10.6025
  -4.200   0.0008   0.00500   0.00111  -0.1172  0.4009  0.0074  -2.0470   0.0000  143.3301
  -4.100   0.0126   0.00498   0.00109  -0.1174  0.4000  0.0076  -1.9692   0.0000   9.7094
  -3.900   0.0361   0.00496   0.00107  -0.1178  0.3959  0.0078  -1.8170   0.0000   3.5676
  -3.800   0.0477   0.00496   0.00106  -0.1179  0.3909  0.0079  -1.7427   0.0000   2.7604
  -3.700   0.0595   0.00495   0.00104  -0.1181  0.3882  0.0079  -1.6690   0.0000   2.2671
  -3.600   0.0710   0.00495   0.00104  -0.1183  0.3822  0.0079  -1.5971   0.0000   1.9408
  -3.500   0.0827   0.00495   0.00103  -0.1184  0.3773  0.0079  -1.5257   0.0000   1.7034
  -3.400   0.0941   0.00496   0.00103  -0.1186  0.3706  0.0081  -1.4559   0.0000   1.5268
  -3.200   0.1173   0.00497   0.00101  -0.1189  0.3575  0.0090  -1.3190   0.0000   1.2766
  -3.100   0.1289   0.00497   0.00100  -0.1190  0.3527  0.0094  -1.2520   0.0000   1.1850
  -3.000   0.1404   0.00497   0.00100  -0.1192  0.3453  0.0099  -1.1860   0.0000   1.1088
  -2.900   0.1519   0.00498   0.00099  -0.1193  0.3388  0.0103  -1.1212   0.0000   1.0444
  -2.700   0.1750   0.00499   0.00098  -0.1196  0.3250  0.0131  -0.9942   0.0000   0.9406
  -2.600   0.1866   0.00499   0.00097  -0.1198  0.3208  0.0149  -0.9320   0.0000   0.8981
  -2.500   0.1981   0.00499   0.00097  -0.1199  0.3137  0.0161  -0.8709   0.0000   0.8608
  -2.400   0.2098   0.00500   0.00097  -0.1201  0.3104  0.0169  -0.8103   0.0000   0.8274
  -2.300   0.2213   0.00500   0.00097  -0.1202  0.3037  0.0187  -0.7512   0.0000   0.7977
  -2.200   0.2330   0.00500   0.00096  -0.1204  0.3007  0.0195  -0.6925   0.0000   0.7708
  -2.100   0.2444   0.00501   0.00096  -0.1205  0.2933  0.0214  -0.6353   0.0000   0.7466
  -2.000   0.2561   0.00501   0.00095  -0.1207  0.2898  0.0231  -0.5788   0.0000   0.7245
  -1.900   0.2676   0.00502   0.00095  -0.1208  0.2824  0.0261  -0.5435   0.0000   0.7044
  -1.800   0.2791   0.00503   0.00096  -0.1210  0.2773  0.0287  -0.5484   0.0000   0.6859
  -1.600   0.3020   0.00505   0.00096  -0.1212  0.2622  0.0339  -0.5583   0.0000   0.6533
  -1.500   0.3135   0.00507   0.00096  -0.1214  0.2555  0.0361  -0.5635   0.0000   0.6388
  -1.400   0.3250   0.00507   0.00096  -0.1215  0.2491  0.0407  -0.5690   0.0000   0.6252
  -1.200   0.3478   0.00511   0.00097  -0.1218  0.2325  0.0471  -0.5799   0.0000   0.6010
  -1.100   0.3594   0.00511   0.00098  -0.1219  0.2278  0.0557  -0.5853   0.0000   0.5899
  -1.000   0.3709   0.00512   0.00098  -0.1221  0.2226  0.0593  -0.5908   0.0000   0.5796
  -0.900   0.3826   0.00512   0.00098  -0.1222  0.2209  0.0627  -0.5965   0.0000   0.5698
  -0.800   0.3941   0.00512   0.00099  -0.1224  0.2167  0.0691  -0.6024   0.0000   0.5606
  -0.700   0.4058   0.00511   0.00099  -0.1226  0.2134  0.0762  -0.6084   0.0000   0.5520
  -0.500   0.4291   0.00509   0.00099  -0.1229  0.2092  0.0999  -0.6204   0.0000   0.5361
  -0.300   0.4524   0.00508   0.00100  -0.1233  0.2021  0.1195  -0.6323   0.0000   0.5218
  -0.200   0.4638   0.00509   0.00101  -0.1234  0.1954  0.1282  -0.6382   0.0000   0.5152
  -0.100   0.4753   0.00510   0.00102  -0.1235  0.1909  0.1353  -0.6441   0.0000   0.5090
   0.100   0.4982   0.00514   0.00105  -0.1238  0.1779  0.1446  -0.6561   0.0000   0.4973
   0.200   0.5098   0.00515   0.00105  -0.1239  0.1757  0.1495  -0.6632   0.0000   0.4918
   0.300   0.5212   0.00516   0.00107  -0.1241  0.1686  0.1603  -0.6703   0.0000   0.4866
   0.400   0.5327   0.00516   0.00108  -0.1242  0.1643  0.1760  -0.6776   0.0000   0.4817
   0.600   0.5556   0.00516   0.00110  -0.1245  0.1516  0.2070  -0.6926   0.0000   0.4724
   0.700   0.5669   0.00519   0.00112  -0.1246  0.1444  0.2117  -0.7005   0.0000   0.4680
   0.800   0.5782   0.00523   0.00114  -0.1247  0.1378  0.2160  -0.7087   0.0000   0.4637
   0.900   0.5895   0.00526   0.00115  -0.1248  0.1320  0.2195  -0.7177   0.0000   0.4597
   1.000   0.6009   0.00529   0.00117  -0.1249  0.1260  0.2206  -0.7268   0.0000   0.4557
   1.100   0.6121   0.00533   0.00120  -0.1250  0.1178  0.2237  -0.7358   0.0000   0.4519
   1.200   0.6233   0.00538   0.00122  -0.1251  0.1092  0.2282  -0.7451   0.0000   0.4483
   1.500   0.6573   0.00546   0.00128  -0.1254  0.0939  0.2401  -0.7757   0.0000   0.4381
   1.700   0.6802   0.00550   0.00131  -0.1256  0.0869  0.2536  -0.7973   0.0000   0.4318
   1.900   0.7032   0.00551   0.00135  -0.1259  0.0821  0.2800  -0.8206   0.0000   0.4260
   2.000   0.7147   0.00551   0.00136  -0.1261  0.0793  0.2939  -0.8323   0.0000   0.4233
   2.200   0.7376   0.00553   0.00140  -0.1264  0.0757  0.3167  -0.8572   0.0000   0.4180
   2.300   0.7491   0.00554   0.00141  -0.1265  0.0730  0.3274  -0.8705   0.0000   0.4155
   2.400   0.7606   0.00555   0.00143  -0.1267  0.0712  0.3384  -0.8876   0.0000   0.4130
   2.500   0.7719   0.00557   0.00146  -0.1268  0.0673  0.3468  -0.9074   0.0000   0.4106
   2.600   0.7833   0.00559   0.00148  -0.1269  0.0656  0.3540  -0.9289   0.0000   0.4083
   2.700   0.7946   0.00562   0.00150  -0.1270  0.0606  0.3624  -0.9548   0.0000   0.4060
   2.900   0.8170   0.00569   0.00156  -0.1272  0.0507  0.3816  -1.0077   0.0000   0.4016
   3.000   0.8283   0.00571   0.00159  -0.1273  0.0492  0.3897  -1.0406   0.0000   0.3996
   3.100   0.8396   0.00573   0.00162  -0.1274  0.0463  0.3988  -1.0749   0.0000   0.3975
   3.200   0.8511   0.00574   0.00164  -0.1276  0.0453  0.4088  -1.1097   0.0000   0.3955
   3.400   0.8736   0.00579   0.00169  -0.1278  0.0399  0.4304  -1.1897   0.0000   0.3917
   3.500   0.8848   0.00583   0.00173  -0.1279  0.0362  0.4391  -1.2329   0.0000   0.3899
   3.600   0.8959   0.00587   0.00177  -0.1279  0.0323  0.4462  -1.2763   0.0000   0.3881
   3.700   0.9071   0.00590   0.00180  -0.1280  0.0303  0.4548  -1.3205   0.0000   0.3863
   3.800   0.9184   0.00592   0.00182  -0.1281  0.0284  0.4651  -1.3653   0.0000   0.3846
   3.900   0.9298   0.00595   0.00185  -0.1283  0.0278  0.4723  -1.4107   0.0000   0.3829
   4.000   0.9409   0.00598   0.00189  -0.1283  0.0259  0.4801  -1.4560   0.0000   0.3812
   4.100   0.9522   0.00600   0.00191  -0.1285  0.0246  0.4896  -1.5021   0.0000   0.3796
   4.200   0.9635   0.00602   0.00195  -0.1286  0.0238  0.5003  -1.5577   0.0000   0.3781
   4.300   0.9747   0.00606   0.00198  -0.1286  0.0222  0.5071  -1.6167   0.0000   0.3765
   4.400   0.9859   0.00608   0.00201  -0.1287  0.0211  0.5148  -1.6771   0.0000   0.3750
   4.500   0.9970   0.00612   0.00205  -0.1288  0.0194  0.5240  -1.7427   0.0000   0.3735
   4.600   1.0081   0.00617   0.00209  -0.1289  0.0174  0.5290  -1.8092   0.0000   0.3721
   4.700   1.0192   0.00621   0.00213  -0.1289  0.0159  0.5357  -1.8763   0.0000   0.3706
   4.800   1.0303   0.00624   0.00217  -0.1290  0.0149  0.5397  -1.9448   0.0000   0.3692
   4.900   1.0415   0.00627   0.00220  -0.1291  0.0146  0.5468  -2.0142   0.0000   0.3679
   5.000   1.0526   0.00631   0.00224  -0.1292  0.0140  0.5498  -2.0839   0.0000   0.3665
   5.100   1.0637   0.00635   0.00227  -0.1292  0.0135  0.5560  -2.1546   0.0000   0.3652
   5.200   1.0749   0.00639   0.00231  -0.1293  0.0129  0.5602  -2.2261   0.0000   0.3639
   5.300   1.0860   0.00642   0.00235  -0.1294  0.0123  0.5640  -2.2985   0.0000   0.3626
   5.500   1.1083   0.00649   0.00241  -0.1296  0.0122  0.5728  -2.4459   0.0000   0.3601
   5.600   1.1194   0.00652   0.00245  -0.1296  0.0121  0.5783  -2.5206   0.0000   0.3589
   5.700   1.1305   0.00656   0.00249  -0.1297  0.0119  0.5828  -2.5960   0.0000   0.3577
   5.800   1.1413   0.00662   0.00254  -0.1297  0.0108  0.5854  -2.6719   0.0000   0.3565
   5.900   1.1523   0.00666   0.00258  -0.1298  0.0098  0.5916  -2.7549   0.0000   0.3554
   6.000   1.1633   0.00671   0.00263  -0.1298  0.0094  0.5952  -2.8387   0.0000   0.3542
   6.100   1.1741   0.00676   0.00268  -0.1298  0.0087  0.6000  -2.9228   0.0000   0.3531
   6.200   1.1850   0.00681   0.00272  -0.1299  0.0081  0.6053  -3.0083   0.0000   0.3520
   6.300   1.1960   0.00685   0.00277  -0.1299  0.0076  0.6073  -3.0950   0.0000   0.3509
   6.400   1.2069   0.00690   0.00281  -0.1300  0.0075  0.6115  -3.1826   0.0000   0.3498
   6.500   1.2179   0.00694   0.00286  -0.1300  0.0073  0.6158  -3.2709   0.0000   0.3488
   6.600   1.2287   0.00700   0.00291  -0.1300  0.0071  0.6181  -3.3598   0.0000   0.3477
   6.700   1.2395   0.00705   0.00296  -0.1300  0.0068  0.6195  -3.4494   0.0000   0.3467
   6.800   1.2503   0.00710   0.00300  -0.1300  0.0066  0.6235  -3.5401   0.0000   0.3457
   6.900   1.2612   0.00715   0.00305  -0.1301  0.0063  0.6268  -3.6317   0.0000   0.3447
   7.000   1.2720   0.00720   0.00310  -0.1301  0.0060  0.6290  -3.7241   0.0000   0.3437
   7.100   1.2828   0.00725   0.00314  -0.1301  0.0058  0.6300  -3.8175   0.0000   0.3427
   7.200   1.2937   0.00730   0.00319  -0.1301  0.0057  0.6327  -3.9119   0.0000   0.3417
   7.300   1.3045   0.00735   0.00324  -0.1302  0.0057  0.6362  -4.0072   0.0000   0.3408
   7.400   1.3153   0.00740   0.00329  -0.1302  0.0057  0.6388  -4.1033   0.0000   0.3398
   7.500   1.3260   0.00745   0.00333  -0.1302  0.0056  0.6404  -4.2002   0.0000   0.3389
   7.600   1.3368   0.00750   0.00338  -0.1302  0.0056  0.6411  -4.2978   0.0000   0.3380
   7.700   1.3475   0.00756   0.00344  -0.1302  0.0056  0.6417  -4.3962   0.0000   0.3371
   7.800   1.3581   0.00761   0.00349  -0.1302  0.0055  0.6444  -4.4953   0.0000   0.3362
   7.900   1.3687   0.00767   0.00354  -0.1302  0.0054  0.6470  -4.5950   0.0000   0.3353
   8.000   1.3793   0.00774   0.00360  -0.1301  0.0052  0.6492  -4.6951   0.0000   0.3344
   8.100   1.3898   0.00780   0.00367  -0.1301  0.0050  0.6510  -4.7957   0.0000   0.3335
   8.200   1.4003   0.00787   0.00373  -0.1301  0.0047  0.6518  -4.8972   0.0000   0.3327
   8.300   1.4108   0.00793   0.00379  -0.1300  0.0045  0.6523  -4.9997   0.0000   0.3318
   8.400   1.4213   0.00800   0.00384  -0.1300  0.0043  0.6527  -5.1031   0.0000   0.3310
   8.500   1.4318   0.00806   0.00390  -0.1300  0.0042  0.6538  -5.2073   0.0000   0.3301
   8.600   1.4423   0.00812   0.00396  -0.1299  0.0041  0.6558  -5.3124   0.0000   0.3293
   8.700   1.4528   0.00818   0.00401  -0.1299  0.0040  0.6577  -5.4191   0.0000   0.3285
   8.800   1.4632   0.00824   0.00407  -0.1299  0.0040  0.6594  -5.5336   0.0000   0.3277
   8.900   1.4737   0.00830   0.00413  -0.1298  0.0040  0.6609  -5.6489   0.0000   0.3269
   9.000   1.4841   0.00836   0.00419  -0.1298  0.0040  0.6621  -5.7650   0.0000   0.3261
   9.100   1.4945   0.00842   0.00425  -0.1297  0.0040  0.6629  -5.8819   0.0000   0.3253
   9.200   1.5048   0.00849   0.00431  -0.1297  0.0040  0.6633  -5.9997   0.0000   0.3245
   9.300   1.5151   0.00855   0.00437  -0.1296  0.0040  0.6637  -6.1183   0.0000   0.3237
   9.400   1.5254   0.00862   0.00443  -0.1295  0.0040  0.6639  -6.2377   0.0000   0.3229
   9.500   1.5357   0.00869   0.00449  -0.1295  0.0040  0.6646  -6.3580   0.0000   0.3222
   9.600   1.5459   0.00876   0.00456  -0.1294  0.0040  0.6663  -6.4790   0.0000   0.3214
   9.700   1.5561   0.00882   0.00462  -0.1293  0.0040  0.6680  -6.6009   0.0000   0.3207
   9.800   1.5663   0.00889   0.00469  -0.1292  0.0039  0.6695  -6.7235   0.0000   0.3199
   9.900   1.5765   0.00896   0.00475  -0.1292  0.0039  0.6709  -6.8469   0.0000   0.3192
  10.000   1.5865   0.00903   0.00482  -0.1291  0.0039  0.6720  -6.9709   0.0000   0.3184
  10.100   1.5966   0.00911   0.00489  -0.1289  0.0038  0.6730  -7.0955   0.0000   0.3177
  10.200   1.6065   0.00919   0.00497  -0.1288  0.0038  0.6737  -7.2205   0.0000   0.3169
  10.300   1.6164   0.00927   0.00505  -0.1287  0.0037  0.6742  -7.3459   0.0000   0.3162
  10.400   1.6262   0.00936   0.00513  -0.1285  0.0036  0.6745  -7.4753   0.0000   0.3155
  10.500   1.6359   0.00944   0.00521  -0.1284  0.0035  0.6747  -7.6099   0.0000   0.3147
  10.600   1.6456   0.00953   0.00529  -0.1282  0.0034  0.6749  -7.7454   0.0000   0.3140
  10.700   1.6553   0.00962   0.00537  -0.1280  0.0033  0.6750  -7.8819   0.0000   0.3133
  10.800   1.6650   0.00970   0.00545  -0.1279  0.0032  0.6752  -8.0193   0.0000   0.3126
  10.900   1.6747   0.00979   0.00554  -0.1277  0.0032  0.6754  -8.1576   0.0000   0.3119
  11.000   1.6843   0.00987   0.00562  -0.1275  0.0031  0.6763  -8.2967   0.0000   0.3112
  11.100   1.6939   0.00996   0.00570  -0.1273  0.0030  0.6775  -8.4366   0.0000   0.3104
  11.200   1.7035   0.01004   0.00578  -0.1271  0.0029  0.6786  -8.5773   0.0000   0.3097
  11.300   1.7130   0.01013   0.00586  -0.1270  0.0028  0.6797  -8.7188   0.0000   0.3090
  11.400   1.7225   0.01021   0.00595  -0.1268  0.0027  0.6807  -8.8610   0.0000   0.3084
  11.500   1.7319   0.01030   0.00603  -0.1265  0.0026  0.6815  -9.0040   0.0000   0.3077
  11.600   1.7413   0.01039   0.00611  -0.1263  0.0026  0.6824  -9.1480   0.0000   0.3070
  11.700   1.7507   0.01047   0.00620  -0.1261  0.0026  0.6832  -9.2927   0.0000   0.3063
  11.800   1.7600   0.01056   0.00628  -0.1259  0.0026  0.6839  -9.4380   0.0000   0.3056
  11.900   1.7693   0.01065   0.00637  -0.1257  0.0026  0.6845  -9.5838   0.0000   0.3049
  12.000   1.7785   0.01074   0.00646  -0.1254  0.0026  0.6849  -9.7302   0.0000   0.3042
  12.100   1.7876   0.01083   0.00655  -0.1251  0.0026  0.6853  -9.8771   0.0000   0.3035
  12.200   1.7966   0.01092   0.00664  -0.1249  0.0026  0.6855  -10.0244   0.0000   0.3029
  12.300   1.8056   0.01101   0.00673  -0.1246  0.0026  0.6857  -10.1723   0.0000   0.3022
  12.400   1.8145   0.01111   0.00682  -0.1243  0.0026  0.6859  -10.3205   0.0000   0.3015
  12.500   1.8226   0.01120   0.00690  -0.1238  0.0026  0.6860  -10.4634   0.0000   0.3008
  12.600   1.8299   0.01129   0.00699  -0.1232  0.0026  0.6862  -10.6021   0.0000   0.3000
  12.700   1.8376   0.01138   0.00708  -0.1226  0.0026  0.6863  -10.7443   0.0000   0.2992
  12.800   1.8454   0.01148   0.00718  -0.1221  0.0026  0.6863  -10.8874   0.0000   0.2985
  12.900   1.8530   0.01158   0.00728  -0.1215  0.0026  0.6864  -11.0305   0.0000   0.2977
  13.000   1.8605   0.01169   0.00739  -0.1210  0.0026  0.6869  -11.1737   0.0000   0.2969
  13.100   1.8679   0.01179   0.00749  -0.1204  0.0026  0.6877  -11.3170   0.0000   0.2962
  13.200   1.8753   0.01190   0.00760  -0.1198  0.0026  0.6886  -11.4606   0.0000   0.2955
  13.300   1.8826   0.01202   0.00771  -0.1192  0.0026  0.6895  -11.6046   0.0000   0.2947
  13.400   1.8898   0.01213   0.00783  -0.1186  0.0026  0.6904  -11.7489   0.0000   0.2940
  13.500   1.8971   0.01225   0.00795  -0.1181  0.0026  0.6912  -11.8938   0.0000   0.2932
  13.600   1.9043   0.01237   0.00807  -0.1175  0.0026  0.6920  -12.0390   0.0000   0.2925
  13.700   1.9114   0.01249   0.00819  -0.1169  0.0026  0.6927  -12.1848   0.0000   0.2918
  13.800   1.9185   0.01262   0.00832  -0.1163  0.0026  0.6934  -12.3313   0.0000   0.2910
  13.900   1.9256   0.01275   0.00845  -0.1157  0.0026  0.6941  -12.4778   0.0000   0.2903
  14.000   1.9326   0.01288   0.00859  -0.1151  0.0026  0.6947  -12.6251   0.0000   0.2896
  14.100   1.9396   0.01302   0.00872  -0.1145  0.0025  0.6952  -12.7728   0.0000   0.2889
  14.200   1.9465   0.01316   0.00887  -0.1139  0.0025  0.6957  -12.9206   0.0000   0.2882
  14.300   1.9533   0.01331   0.00901  -0.1133  0.0025  0.6960  -13.0682   0.0000   0.2875
  14.400   1.9602   0.01346   0.00917  -0.1127  0.0025  0.6963  -13.2166   0.0000   0.2868
  14.500   1.9668   0.01363   0.00933  -0.1121  0.0025  0.6966  -13.3643   0.0000   0.2861
  14.600   1.9733   0.01379   0.00950  -0.1114  0.0024  0.6968  -13.5112   0.0000   0.2853
  14.700   1.9796   0.01397   0.00967  -0.1107  0.0024  0.6969  -13.6573   0.0000   0.2846
  14.800   1.9859   0.01415   0.00986  -0.1101  0.0023  0.6971  -13.8044   0.0000   0.2839
  14.900   1.9922   0.01434   0.01004  -0.1094  0.0023  0.6972  -13.9512   0.0000   0.2832
  15.000   1.9985   0.01453   0.01023  -0.1087  0.0022  0.6973  -14.0989   0.0000   0.2825
  15.100   2.0045   0.01473   0.01043  -0.1081  0.0022  0.6974  -14.2450   0.0000   0.2818
  15.200   2.0106   0.01492   0.01063  -0.1074  0.0021  0.6974  -14.3928   0.0000   0.2811
  15.300   2.0167   0.01512   0.01083  -0.1067  0.0021  0.6975  -14.5410   0.0000   0.2804
  15.400   2.0229   0.01532   0.01103  -0.1061  0.0020  0.6976  -14.6904   0.0000   0.2797
  15.500   2.0291   0.01552   0.01123  -0.1054  0.0020  0.6976  -14.8411   0.0000   0.2790
  15.600   2.0351   0.01573   0.01144  -0.1048  0.0020  0.6977  -14.9907   0.0000   0.2784
  15.700   2.0411   0.01593   0.01164  -0.1041  0.0019  0.6982  -15.1414   0.0000   0.2777
  15.800   2.0470   0.01614   0.01186  -0.1035  0.0019  0.6988  -15.2910   0.0000   0.2770
  15.900   2.0530   0.01636   0.01207  -0.1028  0.0018  0.6995  -15.4423   0.0000   0.2763
  16.000   2.0590   0.01657   0.01229  -0.1022  0.0018  0.7003  -15.5949   0.0000   0.2757
  16.100   2.0648   0.01680   0.01252  -0.1015  0.0018  0.7010  -15.7460   0.0000   0.2750
  16.200   2.0708   0.01702   0.01274  -0.1009  0.0017  0.7018  -15.8996   0.0000   0.2744
  16.300   2.0767   0.01725   0.01298  -0.1003  0.0017  0.7025  -16.0522   0.0000   0.2737
  16.400   2.0823   0.01748   0.01321  -0.0996  0.0016  0.7031  -16.2034   0.0000   0.2730
  16.500   2.0880   0.01771   0.01345  -0.0990  0.0016  0.7037  -16.3565   0.0000   0.2724
  16.600   2.0934   0.01796   0.01369  -0.0983  0.0016  0.7043  -16.5074   0.0000   0.2717
  16.700   2.0990   0.01821   0.01394  -0.0976  0.0016  0.7048  -16.6598   0.0000   0.2711
  16.800   2.1047   0.01845   0.01419  -0.0970  0.0016  0.7053  -16.8153   0.0000   0.2704
  16.900   2.1101   0.01871   0.01445  -0.0964  0.0016  0.7058  -16.9675   0.0000   0.2698
  17.000   2.1156   0.01896   0.01471  -0.0957  0.0016  0.7062  -17.1215   0.0000   0.2691
  17.100   2.1212   0.01922   0.01497  -0.0951  0.0016  0.7066  -17.2773   0.0000   0.2685
  17.200   2.1263   0.01950   0.01525  -0.0944  0.0016  0.7070  -17.4292   0.0000   0.2679
  17.300   2.1315   0.01977   0.01553  -0.0938  0.0016  0.7072  -17.5831   0.0000   0.2672
  17.400   2.1368   0.02004   0.01580  -0.0931  0.0016  0.7075  -17.7371   0.0000   0.2666
  17.500   2.1414   0.02034   0.01611  -0.0924  0.0015  0.7077  -17.8862   0.0000   0.2659
  17.600   2.1464   0.02063   0.01640  -0.0917  0.0015  0.7079  -18.0391   0.0000   0.2653
  17.700   2.1515   0.02092   0.01669  -0.0911  0.0015  0.7080  -18.1936   0.0000   0.2647
  17.800   2.1560   0.02124   0.01702  -0.0904  0.0015  0.7081  -18.3432   0.0000   0.2640
  17.900   2.1609   0.02154   0.01733  -0.0897  0.0015  0.7082  -18.4967   0.0000   0.2634
  18.000   2.1658   0.02185   0.01764  -0.0891  0.0015  0.7083  -18.6511   0.0000   0.2628
  18.100   2.1701   0.02219   0.01799  -0.0884  0.0015  0.7084  -18.8001   0.0000   0.2621
  18.200   2.1748   0.02252   0.01832  -0.0877  0.0015  0.7085  -18.9532   0.0000   0.2615
  18.300   2.1795   0.02285   0.01865  -0.0871  0.0015  0.7085  -19.1074   0.0000   0.2609
  18.400   2.1835   0.02321   0.01902  -0.0864  0.0015  0.7086  -19.2549   0.0000   0.2603
  18.500   2.1878   0.02355   0.01937  -0.0857  0.0015  0.7086  -19.4051   0.0000   0.2596
  18.600   2.1920   0.02390   0.01972  -0.0850  0.0015  0.7087  -19.5557   0.0000   0.2590
  18.700   2.1956   0.02429   0.02012  -0.0843  0.0015  0.7087  -19.7004   0.0000   0.2584
  18.800   2.1997   0.02466   0.02049  -0.0836  0.0015  0.7088  -19.8516   0.0000   0.2578
  18.900   2.2038   0.02504   0.02087  -0.0830  0.0015  0.7088  -20.0023   0.0000   0.2572
  19.000   2.2073   0.02546   0.02130  -0.0823  0.0015  0.7088  -20.1484   0.0000   0.2565
  19.100   2.2114   0.02585   0.02169  -0.0816  0.0015  0.7089  -20.3072   0.0000   0.2559
  19.200   2.2153   0.02626   0.02211  -0.0810  0.0015  0.7089  -20.4637   0.0000   0.2553
  19.300   2.2186   0.02670   0.02256  -0.0803  0.0015  0.7089  -20.6155   0.0000   0.2547
  19.400   2.2226   0.02712   0.02298  -0.0797  0.0015  0.7092  -20.7743   0.0000   0.2541
  19.500   2.2261   0.02756   0.02343  -0.0790  0.0015  0.7095  -20.9285   0.0000   0.2536
  19.600   2.2293   0.02804   0.02391  -0.0783  0.0015  0.7099  -21.0798   0.0000   0.2530
  19.700   2.2330   0.02847   0.02435  -0.0777  0.0015  0.7104  -21.2379   0.0000   0.2524
  19.800   2.2359   0.02896   0.02485  -0.0771  0.0015  0.7109  -21.3861   0.0000   0.2518
  19.900   2.2387   0.02946   0.02536  -0.0764  0.0015  0.7115  -21.5347   0.0000   0.2512
  20.000   2.2421   0.02993   0.02583  -0.0758  0.0015  0.7120  -21.6901   0.0000   0.2506


