xflr5 v6.32

 Calculated polar for: foil1 modified

 1 1 Reynolds number fixed          Mach number fixed         

 xtrf =   1.000 (top)        1.000 (bottom)
 Mach =   0.000     Re =    15.000 e 6     Ncrit =   9.000

  alpha     CL        CD       CDp       Cm    Top Xtr Bot Xtr   Cpmin    Chinge    XCp    
 ------- -------- --------- --------- -------- ------- ------- -------- --------- ---------
 -15.000  -1.2137   0.01337   0.00969  -0.0959  0.8670  0.0050  -16.8655   0.0000   0.1522
 -14.900  -1.2036   0.01320   0.00951  -0.0961  0.8663  0.0050  -16.6890   0.0000   0.1515
 -14.800  -1.1935   0.01303   0.00934  -0.0963  0.8656  0.0050  -16.5122   0.0000   0.1508
 -14.700  -1.1834   0.01287   0.00918  -0.0965  0.8648  0.0051  -16.3349   0.0000   0.1501
 -14.600  -1.1731   0.01272   0.00902  -0.0967  0.8639  0.0051  -16.1575   0.0000   0.1494
 -14.500  -1.1629   0.01257   0.00887  -0.0969  0.8630  0.0052  -15.9799   0.0000   0.1487
 -14.400  -1.1525   0.01242   0.00872  -0.0970  0.8621  0.0052  -15.8023   0.0000   0.1479
 -14.300  -1.1421   0.01228   0.00858  -0.0972  0.8610  0.0052  -15.6246   0.0000   0.1471
 -14.200  -1.1317   0.01215   0.00844  -0.0974  0.8599  0.0053  -15.4470   0.0000   0.1463
 -14.100  -1.1211   0.01202   0.00831  -0.0976  0.8592  0.0053  -15.2691   0.0000   0.1455
 -14.000  -1.1105   0.01189   0.00817  -0.0978  0.8587  0.0053  -15.0913   0.0000   0.1446
 -13.900  -1.0999   0.01176   0.00805  -0.0980  0.8581  0.0053  -14.9137   0.0000   0.1437
 -13.800  -1.0892   0.01164   0.00792  -0.0982  0.8574  0.0054  -14.7366   0.0000   0.1428
 -13.700  -1.0785   0.01151   0.00780  -0.0984  0.8566  0.0054  -14.5600   0.0000   0.1419
 -13.600  -1.0678   0.01140   0.00768  -0.0986  0.8557  0.0054  -14.3839   0.0000   0.1409
 -13.500  -1.0570   0.01128   0.00756  -0.0988  0.8548  0.0055  -14.2083   0.0000   0.1400
 -13.400  -1.0462   0.01117   0.00744  -0.0989  0.8539  0.0055  -14.0334   0.0000   0.1389
 -13.300  -1.0354   0.01106   0.00733  -0.0991  0.8529  0.0055  -13.8591   0.0000   0.1379
 -13.200  -1.0246   0.01095   0.00722  -0.0993  0.8517  0.0055  -13.6852   0.0000   0.1368
 -13.100  -1.0137   0.01084   0.00711  -0.0995  0.8510  0.0055  -13.5117   0.0000   0.1357
 -13.000  -1.0027   0.01073   0.00700  -0.0997  0.8506  0.0056  -13.3385   0.0000   0.1346
 -12.900  -0.9917   0.01063   0.00689  -0.0999  0.8500  0.0056  -13.1660   0.0000   0.1334
 -12.800  -0.9807   0.01052   0.00679  -0.1001  0.8494  0.0056  -12.9941   0.0000   0.1322
 -12.700  -0.9697   0.01042   0.00669  -0.1003  0.8486  0.0056  -12.8230   0.0000   0.1309
 -12.600  -0.9587   0.01032   0.00659  -0.1005  0.8478  0.0056  -12.6526   0.0000   0.1296
 -12.500  -0.9476   0.01023   0.00649  -0.1007  0.8470  0.0056  -12.4830   0.0000   0.1283
 -12.400  -0.9366   0.01013   0.00639  -0.1009  0.8460  0.0057  -12.3141   0.0000   0.1270
 -12.300  -0.9255   0.01004   0.00629  -0.1011  0.8450  0.0057  -12.1461   0.0000   0.1256
 -12.200  -0.9144   0.00995   0.00620  -0.1013  0.8439  0.0057  -11.9790   0.0000   0.1242
 -12.100  -0.9033   0.00985   0.00611  -0.1015  0.8427  0.0057  -11.8125   0.0000   0.1227
 -12.000  -0.8921   0.00976   0.00602  -0.1017  0.8422  0.0057  -11.6464   0.0000   0.1211
 -11.900  -0.8809   0.00967   0.00593  -0.1020  0.8416  0.0057  -11.4812   0.0000   0.1196
 -11.800  -0.8696   0.00958   0.00584  -0.1022  0.8408  0.0057  -11.3169   0.0000   0.1179
 -11.700  -0.8584   0.00949   0.00575  -0.1024  0.8400  0.0057  -11.1535   0.0000   0.1162
 -11.600  -0.8472   0.00941   0.00566  -0.1026  0.8390  0.0057  -10.9911   0.0000   0.1145
 -11.500  -0.8359   0.00932   0.00558  -0.1028  0.8380  0.0057  -10.8296   0.0000   0.1127
 -11.400  -0.8247   0.00924   0.00549  -0.1030  0.8370  0.0057  -10.6692   0.0000   0.1109
 -11.300  -0.8134   0.00916   0.00541  -0.1032  0.8358  0.0058  -10.5097   0.0000   0.1090
 -11.200  -0.8022   0.00908   0.00533  -0.1034  0.8345  0.0058  -10.3511   0.0000   0.1071
 -11.100  -0.7908   0.00900   0.00525  -0.1036  0.8338  0.0058  -10.1930   0.0000   0.1051
 -11.000  -0.7795   0.00892   0.00517  -0.1038  0.8332  0.0058  -10.0359   0.0000   0.1030
 -10.900  -0.7681   0.00884   0.00509  -0.1040  0.8325  0.0058  -9.8798   0.0000   0.1008
 -10.800  -0.7567   0.00876   0.00501  -0.1043  0.8318  0.0058  -9.7247   0.0000   0.0985
 -10.700  -0.7453   0.00868   0.00493  -0.1045  0.8309  0.0058  -9.5706   0.0000   0.0962
 -10.600  -0.7340   0.00860   0.00485  -0.1047  0.8300  0.0058  -9.4176   0.0000   0.0938
 -10.500  -0.7226   0.00853   0.00478  -0.1049  0.8291  0.0058  -9.2657   0.0000   0.0914
 -10.400  -0.7112   0.00845   0.00470  -0.1051  0.8281  0.0058  -9.1149   0.0000   0.0888
 -10.300  -0.6998   0.00838   0.00463  -0.1053  0.8270  0.0058  -8.9651   0.0000   0.0862
 -10.200  -0.6884   0.00831   0.00456  -0.1055  0.8257  0.0058  -8.8164   0.0000   0.0835
 -10.100  -0.6769   0.00823   0.00448  -0.1057  0.8251  0.0058  -8.6683   0.0000   0.0806
 -10.000  -0.6654   0.00816   0.00441  -0.1059  0.8245  0.0058  -8.5213   0.0000   0.0776
  -9.900  -0.6539   0.00809   0.00434  -0.1062  0.8237  0.0058  -8.3753   0.0000   0.0745
  -9.800  -0.6424   0.00801   0.00427  -0.1064  0.8229  0.0058  -8.2305   0.0000   0.0713
  -9.700  -0.6309   0.00794   0.00420  -0.1066  0.8220  0.0058  -8.0868   0.0000   0.0680
  -9.600  -0.6194   0.00787   0.00413  -0.1068  0.8210  0.0058  -7.9443   0.0000   0.0646
  -9.500  -0.6079   0.00780   0.00406  -0.1070  0.8198  0.0058  -7.8030   0.0000   0.0610
  -9.400  -0.5964   0.00774   0.00399  -0.1072  0.8186  0.0058  -7.6628   0.0000   0.0573
  -9.300  -0.5849   0.00767   0.00392  -0.1074  0.8172  0.0058  -7.5238   0.0000   0.0535
  -9.200  -0.5734   0.00760   0.00385  -0.1077  0.8163  0.0058  -7.3855   0.0000   0.0494
  -9.100  -0.5618   0.00753   0.00378  -0.1079  0.8157  0.0058  -7.2482   0.0000   0.0451
  -9.000  -0.5502   0.00746   0.00371  -0.1081  0.8149  0.0058  -7.1120   0.0000   0.0407
  -8.900  -0.5386   0.00740   0.00365  -0.1083  0.8140  0.0058  -6.9771   0.0000   0.0361
  -8.800  -0.5270   0.00733   0.00358  -0.1085  0.8130  0.0058  -6.8433   0.0000   0.0313
  -8.700  -0.5155   0.00727   0.00351  -0.1088  0.8119  0.0058  -6.7107   0.0000   0.0262
  -8.600  -0.5039   0.00720   0.00345  -0.1090  0.8106  0.0058  -6.5794   0.0000   0.0210
  -8.500  -0.4924   0.00712   0.00336  -0.1092  0.8093  0.0059  -6.4529   0.0000   0.0155
  -8.400  -0.4809   0.00703   0.00326  -0.1094  0.8077  0.0059  -6.3302   0.0000   0.0097
  -8.300  -0.4693   0.00694   0.00316  -0.1096  0.8070  0.0059  -6.2073   0.0000   0.0035
  -8.200  -0.4576   0.00686   0.00308  -0.1099  0.8062  0.0059  -6.0847   0.0000  -0.0030
  -8.100  -0.4460   0.00678   0.00299  -0.1101  0.8053  0.0060  -5.9627   0.0000  -0.0098
  -8.000  -0.4343   0.00671   0.00291  -0.1103  0.8041  0.0060  -5.8414   0.0000  -0.0169
  -7.900  -0.4227   0.00663   0.00283  -0.1105  0.8029  0.0060  -5.7208   0.0000  -0.0245
  -7.800  -0.4111   0.00657   0.00276  -0.1108  0.8015  0.0060  -5.6011   0.0000  -0.0325
  -7.700  -0.3995   0.00650   0.00269  -0.1110  0.8000  0.0060  -5.4823   0.0000  -0.0409
  -7.600  -0.3878   0.00644   0.00262  -0.1112  0.7984  0.0061  -5.3643   0.0000  -0.0499
  -7.500  -0.3761   0.00638   0.00256  -0.1114  0.7977  0.0061  -5.2467   0.0000  -0.0595
  -7.400  -0.3644   0.00631   0.00249  -0.1116  0.7968  0.0061  -5.1301   0.0000  -0.0698
  -7.300  -0.3527   0.00625   0.00243  -0.1119  0.7957  0.0061  -5.0145   0.0000  -0.0807
  -7.200  -0.3410   0.00620   0.00237  -0.1121  0.7945  0.0062  -4.9000   0.0000  -0.0924
  -7.100  -0.3293   0.00614   0.00231  -0.1123  0.7932  0.0062  -4.7865   0.0000  -0.1049
  -7.000  -0.3176   0.00609   0.00226  -0.1125  0.7917  0.0062  -4.6741   0.0000  -0.1183
  -6.900  -0.3059   0.00604   0.00220  -0.1127  0.7899  0.0063  -4.5627   0.0000  -0.1326
  -6.800  -0.2942   0.00599   0.00215  -0.1129  0.7887  0.0063  -4.4520   0.0000  -0.1483
  -6.700  -0.2824   0.00593   0.00209  -0.1132  0.7877  0.0063  -4.3423   0.0000  -0.1654
  -6.600  -0.2707   0.00588   0.00204  -0.1134  0.7864  0.0064  -4.2337   0.0000  -0.1838
  -6.500  -0.2589   0.00584   0.00199  -0.1136  0.7848  0.0064  -4.1264   0.0000  -0.2040
  -6.400  -0.2472   0.00579   0.00195  -0.1138  0.7831  0.0065  -4.0202   0.0000  -0.2259
  -6.300  -0.2355   0.00575   0.00190  -0.1140  0.7811  0.0065  -3.9152   0.0000  -0.2500
  -6.200  -0.2238   0.00570   0.00185  -0.1142  0.7795  0.0066  -3.8111   0.0000  -0.2767
  -6.100  -0.2120   0.00566   0.00181  -0.1144  0.7783  0.0067  -3.7078   0.0000  -0.3066
  -6.000  -0.2002   0.00561   0.00176  -0.1146  0.7769  0.0068  -3.6055   0.0000  -0.3400
  -5.900  -0.1885   0.00557   0.00172  -0.1149  0.7752  0.0070  -3.5041   0.0000  -0.3774
  -5.800  -0.1768   0.00553   0.00168  -0.1151  0.7734  0.0071  -3.4035   0.0000  -0.4197
  -5.700  -0.1651   0.00549   0.00164  -0.1153  0.7714  0.0073  -3.3038   0.0000  -0.4679
  -5.600  -0.1533   0.00545   0.00160  -0.1155  0.7698  0.0074  -3.2046   0.0000  -0.5238
  -5.500  -0.1415   0.00541   0.00157  -0.1157  0.7687  0.0076  -3.1061   0.0000  -0.5895
  -5.400  -0.1297   0.00537   0.00153  -0.1159  0.7673  0.0077  -3.0086   0.0000  -0.6668
  -5.300  -0.1179   0.00534   0.00150  -0.1161  0.7655  0.0078  -2.9122   0.0000  -0.7593
  -5.200  -0.1062   0.00531   0.00147  -0.1163  0.7635  0.0078  -2.8169   0.0000  -0.8718
  -5.100  -0.0945   0.00529   0.00144  -0.1165  0.7610  0.0079  -2.7228   0.0000  -1.0117
  -5.000  -0.0827   0.00526   0.00141  -0.1167  0.7595  0.0079  -2.6293   0.0000  -1.1933
  -4.900  -0.0709   0.00523   0.00138  -0.1169  0.7577  0.0079  -2.5419   0.0000  -1.4349
  -4.800  -0.0592   0.00520   0.00135  -0.1171  0.7555  0.0079  -2.4584   0.0000  -1.7709
  -4.700  -0.0475   0.00518   0.00133  -0.1173  0.7528  0.0080  -2.3771   0.0000  -2.2694
  -4.600  -0.0358   0.00515   0.00129  -0.1175  0.7504  0.0083  -2.3010   0.0000  -3.0982
  -4.500  -0.0240   0.00511   0.00126  -0.1177  0.7486  0.0087  -2.2243   0.0000  -4.7501
  -4.400  -0.0123   0.00508   0.00123  -0.1179  0.7461  0.0091  -2.1475   0.0000  -9.5443
  -4.300  -0.0006   0.00506   0.00120  -0.1181  0.7430  0.0095  -2.0707   0.0000  -192.8447
  -4.200   0.0111   0.00503   0.00118  -0.1183  0.7403  0.0099  -1.9942   0.0000  11.1099
  -4.100   0.0229   0.00500   0.00115  -0.1185  0.7381  0.0102  -1.9182   0.0000   5.5231
  -3.900   0.0462   0.00495   0.00110  -0.1188  0.7316  0.0122  -1.7705   0.0000   2.8659
  -3.800   0.0579   0.00492   0.00107  -0.1191  0.7293  0.0130  -1.6972   0.0000   2.3370
  -3.700   0.0697   0.00489   0.00105  -0.1192  0.7264  0.0148  -1.6254   0.0000   1.9877
  -3.600   0.0813   0.00488   0.00103  -0.1194  0.7227  0.0159  -1.5545   0.0000   1.7410
  -3.500   0.0930   0.00486   0.00101  -0.1196  0.7196  0.0172  -1.4844   0.0000   1.5546
  -3.400   0.1047   0.00483   0.00098  -0.1198  0.7163  0.0188  -1.4151   0.0000   1.4099
  -3.300   0.1162   0.00482   0.00097  -0.1199  0.7118  0.0198  -1.3472   0.0000   1.2955
  -3.200   0.1279   0.00480   0.00095  -0.1201  0.7084  0.0221  -1.2799   0.0000   1.2009
  -3.100   0.1395   0.00478   0.00093  -0.1203  0.7042  0.0240  -1.2136   0.0000   1.1226
  -3.000   0.1511   0.00476   0.00091  -0.1205  0.6998  0.0270  -1.1486   0.0000   1.0564
  -2.900   0.1628   0.00474   0.00089  -0.1206  0.6961  0.0310  -1.0842   0.0000   0.9993
  -2.800   0.1743   0.00472   0.00088  -0.1208  0.6912  0.0344  -1.0211   0.0000   0.9503
  -2.700   0.1860   0.00470   0.00086  -0.1210  0.6875  0.0383  -0.9585   0.0000   0.9070
  -2.600   0.1975   0.00469   0.00085  -0.1211  0.6826  0.0425  -0.8972   0.0000   0.8691
  -2.500   0.2091   0.00467   0.00083  -0.1213  0.6777  0.0485  -0.8369   0.0000   0.8354
  -2.400   0.2206   0.00465   0.00082  -0.1215  0.6720  0.0558  -0.7777   0.0000   0.8053
  -2.300   0.2321   0.00464   0.00081  -0.1216  0.6662  0.0610  -0.7193   0.0000   0.7782
  -2.100   0.2549   0.00462   0.00079  -0.1219  0.6526  0.0763  -0.6058   0.0000   0.7314
  -2.000   0.2663   0.00461   0.00078  -0.1220  0.6457  0.0850  -0.5506   0.0000   0.7111
  -1.900   0.2777   0.00459   0.00077  -0.1222  0.6388  0.0964  -0.5483   0.0000   0.6925
  -1.700   0.3007   0.00453   0.00075  -0.1225  0.6265  0.1250  -0.5581   0.0000   0.6594
  -1.600   0.3123   0.00449   0.00074  -0.1227  0.6221  0.1400  -0.5631   0.0000   0.6446
  -1.500   0.3238   0.00446   0.00073  -0.1229  0.6169  0.1570  -0.5685   0.0000   0.6309
  -1.400   0.3355   0.00442   0.00072  -0.1231  0.6128  0.1750  -0.5740   0.0000   0.6181
  -1.300   0.3472   0.00435   0.00071  -0.1233  0.6090  0.2013  -0.5795   0.0000   0.6063
  -1.200   0.3589   0.00425   0.00069  -0.1236  0.6048  0.2386  -0.5850   0.0000   0.5952
  -1.100   0.3706   0.00417   0.00067  -0.1239  0.6018  0.2676  -0.5905   0.0000   0.5848
  -1.000   0.3824   0.00408   0.00065  -0.1241  0.5977  0.3014  -0.5961   0.0000   0.5751
  -0.900   0.3939   0.00403   0.00064  -0.1243  0.5924  0.3270  -0.6019   0.0000   0.5659
  -0.700   0.4168   0.00395   0.00063  -0.1247  0.5792  0.3742  -0.6136   0.0000   0.5491
  -0.600   0.4281   0.00390   0.00062  -0.1249  0.5702  0.4088  -0.6193   0.0000   0.5415
  -0.500   0.4394   0.00384   0.00062  -0.1251  0.5614  0.4413  -0.6251   0.0000   0.5343
  -0.400   0.4507   0.00383   0.00062  -0.1252  0.5513  0.4614  -0.6308   0.0000   0.5274
  -0.300   0.4617   0.00386   0.00064  -0.1253  0.5400  0.4714  -0.6365   0.0000   0.5207
  -0.200   0.4727   0.00391   0.00066  -0.1254  0.5279  0.4796  -0.6421   0.0000   0.5144
  -0.100   0.4837   0.00394   0.00067  -0.1254  0.5160  0.4897  -0.6477   0.0000   0.5083
   0.000   0.4947   0.00397   0.00069  -0.1255  0.5046  0.5014  -0.6536   0.0000   0.5026
   0.100   0.5057   0.00400   0.00071  -0.1256  0.4924  0.5150  -0.6600   0.0000   0.4971
   0.200   0.5167   0.00403   0.00073  -0.1256  0.4795  0.5299  -0.6668   0.0000   0.4918
   0.300   0.5276   0.00406   0.00075  -0.1257  0.4662  0.5457  -0.6736   0.0000   0.4868
   0.400   0.5384   0.00409   0.00077  -0.1257  0.4518  0.5640  -0.6806   0.0000   0.4820
   0.500   0.5491   0.00413   0.00080  -0.1258  0.4368  0.5807  -0.6876   0.0000   0.4774
   0.600   0.5600   0.00418   0.00083  -0.1258  0.4240  0.5934  -0.6949   0.0000   0.4729
   0.700   0.5710   0.00422   0.00085  -0.1259  0.4123  0.6043  -0.7027   0.0000   0.4685
   0.800   0.5821   0.00427   0.00088  -0.1259  0.4025  0.6107  -0.7110   0.0000   0.4643
   0.900   0.5933   0.00431   0.00090  -0.1260  0.3944  0.6165  -0.7199   0.0000   0.4603
   1.000   0.6045   0.00435   0.00092  -0.1261  0.3860  0.6206  -0.7288   0.0000   0.4564
   1.100   0.6155   0.00440   0.00095  -0.1261  0.3767  0.6262  -0.7376   0.0000   0.4526
   1.200   0.6265   0.00446   0.00098  -0.1262  0.3663  0.6298  -0.7469   0.0000   0.4490
   1.300   0.6374   0.00452   0.00101  -0.1262  0.3551  0.6348  -0.7567   0.0000   0.4455
   1.400   0.6483   0.00459   0.00105  -0.1262  0.3435  0.6385  -0.7665   0.0000   0.4421
   1.700   0.6808   0.00481   0.00116  -0.1263  0.3091  0.6460  -0.7980   0.0000   0.4326
   1.800   0.6917   0.00489   0.00120  -0.1263  0.2979  0.6484  -0.8091   0.0000   0.4296
   1.900   0.7023   0.00498   0.00124  -0.1263  0.2845  0.6503  -0.8200   0.0000   0.4267
   2.000   0.7129   0.00508   0.00128  -0.1262  0.2703  0.6516  -0.8310   0.0000   0.4239
   2.100   0.7235   0.00517   0.00133  -0.1262  0.2576  0.6526  -0.8425   0.0000   0.4212
   2.200   0.7339   0.00528   0.00138  -0.1261  0.2417  0.6545  -0.8549   0.0000   0.4185
   2.300   0.7445   0.00538   0.00143  -0.1261  0.2284  0.6567  -0.8674   0.0000   0.4159
   2.400   0.7551   0.00547   0.00148  -0.1261  0.2161  0.6586  -0.8845   0.0000   0.4134
   2.500   0.7658   0.00556   0.00153  -0.1261  0.2047  0.6601  -0.9036   0.0000   0.4110
   2.600   0.7765   0.00564   0.00157  -0.1261  0.1946  0.6614  -0.9240   0.0000   0.4086
   2.700   0.7873   0.00572   0.00162  -0.1261  0.1849  0.6623  -0.9473   0.0000   0.4063
   2.800   0.7981   0.00580   0.00166  -0.1261  0.1770  0.6631  -0.9734   0.0000   0.4040
   2.900   0.8090   0.00587   0.00170  -0.1261  0.1701  0.6636  -0.9997   0.0000   0.4018
   3.000   0.8199   0.00594   0.00174  -0.1261  0.1633  0.6641  -1.0283   0.0000   0.3997
   3.100   0.8309   0.00600   0.00178  -0.1261  0.1568  0.6656  -1.0619   0.0000   0.3976
   3.200   0.8417   0.00608   0.00183  -0.1261  0.1491  0.6671  -1.0955   0.0000   0.3955
   3.300   0.8522   0.00617   0.00188  -0.1261  0.1394  0.6684  -1.1291   0.0000   0.3935
   3.400   0.8628   0.00626   0.00194  -0.1261  0.1301  0.6695  -1.1680   0.0000   0.3916
   3.500   0.8736   0.00633   0.00199  -0.1261  0.1237  0.6706  -1.2104   0.0000   0.3897
   3.600   0.8841   0.00643   0.00205  -0.1260  0.1141  0.6715  -1.2524   0.0000   0.3878
   3.800   0.9052   0.00662   0.00216  -0.1259  0.0965  0.6731  -1.3378   0.0000   0.3842
   3.900   0.9159   0.00669   0.00221  -0.1259  0.0912  0.6737  -1.3816   0.0000   0.3824
   4.000   0.9266   0.00677   0.00226  -0.1259  0.0857  0.6742  -1.4257   0.0000   0.3807
   4.100   0.9373   0.00685   0.00232  -0.1259  0.0802  0.6746  -1.4701   0.0000   0.3791
   4.200   0.9479   0.00694   0.00237  -0.1259  0.0738  0.6749  -1.5179   0.0000   0.3774
   4.300   0.9586   0.00702   0.00243  -0.1258  0.0689  0.6752  -1.5752   0.0000   0.3758
   4.400   0.9693   0.00709   0.00248  -0.1258  0.0648  0.6759  -1.6335   0.0000   0.3742
   4.500   0.9799   0.00718   0.00254  -0.1258  0.0593  0.6769  -1.6920   0.0000   0.3727
   4.600   0.9905   0.00726   0.00260  -0.1258  0.0547  0.6780  -1.7564   0.0000   0.3712
   4.700   1.0011   0.00734   0.00265  -0.1257  0.0507  0.6790  -1.8217   0.0000   0.3697
   4.800   1.0119   0.00740   0.00271  -0.1257  0.0480  0.6799  -1.8880   0.0000   0.3683
   4.900   1.0226   0.00747   0.00276  -0.1257  0.0450  0.6807  -1.9551   0.0000   0.3668
   5.000   1.0331   0.00755   0.00282  -0.1257  0.0416  0.6814  -2.0224   0.0000   0.3654
   5.100   1.0439   0.00762   0.00287  -0.1257  0.0396  0.6821  -2.0912   0.0000   0.3641
   5.200   1.0545   0.00770   0.00294  -0.1257  0.0366  0.6828  -2.1600   0.0000   0.3627
   5.300   1.0651   0.00777   0.00299  -0.1256  0.0346  0.6834  -2.2299   0.0000   0.3614
   5.400   1.0757   0.00784   0.00305  -0.1256  0.0320  0.6840  -2.3002   0.0000   0.3601
   5.500   1.0863   0.00792   0.00312  -0.1256  0.0301  0.6845  -2.3713   0.0000   0.3588
   5.600   1.0969   0.00799   0.00317  -0.1255  0.0282  0.6849  -2.4432   0.0000   0.3576
   5.700   1.1074   0.00807   0.00324  -0.1255  0.0263  0.6852  -2.5156   0.0000   0.3563
   5.800   1.1179   0.00815   0.00330  -0.1255  0.0244  0.6855  -2.5888   0.0000   0.3551
   5.900   1.1285   0.00822   0.00336  -0.1254  0.0231  0.6858  -2.6628   0.0000   0.3539
   6.000   1.1389   0.00830   0.00343  -0.1254  0.0213  0.6860  -2.7407   0.0000   0.3527
   6.100   1.1495   0.00837   0.00348  -0.1253  0.0207  0.6862  -2.8231   0.0000   0.3516
   6.200   1.1599   0.00845   0.00356  -0.1253  0.0191  0.6864  -2.9050   0.0000   0.3504
   6.300   1.1703   0.00853   0.00362  -0.1252  0.0177  0.6868  -2.9883   0.0000   0.3493
   6.400   1.1808   0.00860   0.00369  -0.1252  0.0168  0.6876  -3.0725   0.0000   0.3482
   6.500   1.1911   0.00869   0.00376  -0.1251  0.0157  0.6884  -3.1570   0.0000   0.3471
   6.600   1.2016   0.00875   0.00382  -0.1250  0.0149  0.6892  -3.2431   0.0000   0.3460
   6.700   1.2121   0.00882   0.00389  -0.1250  0.0146  0.6900  -3.3302   0.0000   0.3449
   6.800   1.2225   0.00890   0.00395  -0.1249  0.0141  0.6906  -3.4177   0.0000   0.3439
   6.900   1.2328   0.00898   0.00402  -0.1249  0.0135  0.6913  -3.5055   0.0000   0.3428
   7.000   1.2431   0.00905   0.00410  -0.1248  0.0128  0.6918  -3.5942   0.0000   0.3418
   7.100   1.2535   0.00912   0.00416  -0.1247  0.0123  0.6924  -3.6841   0.0000   0.3408
   7.200   1.2639   0.00919   0.00423  -0.1247  0.0122  0.6929  -3.7752   0.0000   0.3398
   7.300   1.2743   0.00926   0.00429  -0.1246  0.0119  0.6934  -3.8669   0.0000   0.3388
   7.400   1.2845   0.00934   0.00437  -0.1245  0.0114  0.6939  -3.9588   0.0000   0.3378
   7.500   1.2944   0.00944   0.00445  -0.1244  0.0105  0.6944  -4.0500   0.0000   0.3369
   7.600   1.3045   0.00953   0.00453  -0.1243  0.0097  0.6948  -4.1428   0.0000   0.3359
   7.700   1.3146   0.00961   0.00461  -0.1242  0.0094  0.6952  -4.2367   0.0000   0.3349
   7.800   1.3246   0.00970   0.00469  -0.1240  0.0090  0.6956  -4.3308   0.0000   0.3340
   7.900   1.3346   0.00979   0.00478  -0.1239  0.0085  0.6959  -4.4252   0.0000   0.3331
   8.000   1.3445   0.00988   0.00486  -0.1238  0.0080  0.6962  -4.5203   0.0000   0.3321
   8.100   1.3545   0.00997   0.00494  -0.1236  0.0076  0.6965  -4.6167   0.0000   0.3312
   8.200   1.3646   0.01005   0.00501  -0.1235  0.0076  0.6967  -4.7145   0.0000   0.3303
   8.300   1.3745   0.01013   0.00509  -0.1234  0.0074  0.6969  -4.8128   0.0000   0.3294
   8.400   1.3844   0.01022   0.00518  -0.1232  0.0073  0.6971  -4.9116   0.0000   0.3286
   8.500   1.3942   0.01031   0.00526  -0.1231  0.0071  0.6973  -5.0107   0.0000   0.3277
   8.600   1.4039   0.01040   0.00535  -0.1229  0.0069  0.6974  -5.1100   0.0000   0.3268
   8.700   1.4136   0.01050   0.00544  -0.1227  0.0066  0.6975  -5.2097   0.0000   0.3259
   8.800   1.4232   0.01060   0.00553  -0.1225  0.0064  0.6976  -5.3113   0.0000   0.3251
   8.900   1.4328   0.01069   0.00563  -0.1223  0.0062  0.6980  -5.4195   0.0000   0.3242
   9.000   1.4424   0.01079   0.00572  -0.1221  0.0059  0.6986  -5.5282   0.0000   0.3234
   9.100   1.4520   0.01088   0.00581  -0.1219  0.0058  0.6993  -5.6375   0.0000   0.3225
   9.200   1.4616   0.01097   0.00590  -0.1218  0.0057  0.6999  -5.7487   0.0000   0.3217
   9.300   1.4712   0.01106   0.00599  -0.1216  0.0057  0.7006  -5.8612   0.0000   0.3209
   9.400   1.4807   0.01115   0.00608  -0.1214  0.0057  0.7012  -5.9744   0.0000   0.3201
   9.500   1.4902   0.01124   0.00617  -0.1212  0.0057  0.7018  -6.0882   0.0000   0.3192
   9.600   1.4997   0.01133   0.00626  -0.1210  0.0056  0.7023  -6.2026   0.0000   0.3184
   9.700   1.5090   0.01142   0.00635  -0.1207  0.0056  0.7028  -6.3176   0.0000   0.3176
   9.800   1.5183   0.01152   0.00644  -0.1205  0.0056  0.7033  -6.4330   0.0000   0.3168
   9.900   1.5276   0.01161   0.00654  -0.1202  0.0055  0.7037  -6.5489   0.0000   0.3160
  10.000   1.5366   0.01171   0.00664  -0.1200  0.0055  0.7041  -6.6648   0.0000   0.3152
  10.100   1.5452   0.01181   0.00674  -0.1196  0.0054  0.7045  -6.7784   0.0000   0.3144
  10.200   1.5530   0.01191   0.00684  -0.1190  0.0053  0.7049  -6.8889   0.0000   0.3135
  10.300   1.5611   0.01202   0.00694  -0.1185  0.0052  0.7053  -7.0013   0.0000   0.3126
  10.400   1.5692   0.01213   0.00705  -0.1181  0.0051  0.7057  -7.1149   0.0000   0.3118
  10.500   1.5773   0.01224   0.00717  -0.1176  0.0050  0.7061  -7.2289   0.0000   0.3110
  10.600   1.5854   0.01237   0.00729  -0.1171  0.0049  0.7064  -7.3430   0.0000   0.3101
  10.700   1.5933   0.01249   0.00741  -0.1166  0.0048  0.7067  -7.4622   0.0000   0.3093
  10.800   1.6011   0.01262   0.00753  -0.1161  0.0047  0.7070  -7.5841   0.0000   0.3085
  10.900   1.6089   0.01274   0.00766  -0.1156  0.0046  0.7072  -7.7063   0.0000   0.3076
  11.000   1.6166   0.01287   0.00779  -0.1151  0.0045  0.7075  -7.8287   0.0000   0.3068
  11.100   1.6243   0.01301   0.00792  -0.1146  0.0044  0.7077  -7.9515   0.0000   0.3060
  11.200   1.6318   0.01314   0.00806  -0.1141  0.0043  0.7079  -8.0745   0.0000   0.3052
  11.300   1.6393   0.01328   0.00820  -0.1135  0.0042  0.7081  -8.1979   0.0000   0.3043
  11.400   1.6468   0.01342   0.00835  -0.1130  0.0041  0.7082  -8.3216   0.0000   0.3035
  11.500   1.6542   0.01357   0.00850  -0.1124  0.0040  0.7084  -8.4456   0.0000   0.3027
  11.600   1.6618   0.01370   0.00863  -0.1119  0.0040  0.7085  -8.5731   0.0000   0.3019
  11.700   1.6693   0.01384   0.00877  -0.1114  0.0040  0.7086  -8.7012   0.0000   0.3012
  11.800   1.6769   0.01398   0.00891  -0.1109  0.0040  0.7087  -8.8299   0.0000   0.3004
  11.900   1.6843   0.01412   0.00905  -0.1104  0.0040  0.7088  -8.9592   0.0000   0.2996
  12.000   1.6918   0.01426   0.00920  -0.1099  0.0040  0.7089  -9.0890   0.0000   0.2989
  12.100   1.6992   0.01441   0.00934  -0.1093  0.0040  0.7092  -9.2192   0.0000   0.2981
  12.200   1.7066   0.01456   0.00950  -0.1088  0.0040  0.7098  -9.3501   0.0000   0.2973
  12.300   1.7139   0.01471   0.00965  -0.1083  0.0040  0.7103  -9.4816   0.0000   0.2966
  12.400   1.7212   0.01487   0.00981  -0.1078  0.0040  0.7108  -9.6135   0.0000   0.2958
  12.500   1.7284   0.01502   0.00997  -0.1073  0.0040  0.7114  -9.7457   0.0000   0.2951
  12.600   1.7356   0.01519   0.01014  -0.1067  0.0040  0.7119  -9.8781   0.0000   0.2944
  12.700   1.7427   0.01535   0.01031  -0.1062  0.0040  0.7124  -10.0113   0.0000   0.2936
  12.800   1.7498   0.01552   0.01048  -0.1057  0.0040  0.7129  -10.1449   0.0000   0.2929
  12.900   1.7569   0.01569   0.01066  -0.1052  0.0039  0.7134  -10.2789   0.0000   0.2922
  13.000   1.7638   0.01587   0.01084  -0.1046  0.0039  0.7138  -10.4130   0.0000   0.2914
  13.100   1.7707   0.01605   0.01102  -0.1041  0.0039  0.7143  -10.5470   0.0000   0.2907
  13.200   1.7775   0.01623   0.01121  -0.1035  0.0039  0.7147  -10.6817   0.0000   0.2900
  13.300   1.7843   0.01643   0.01141  -0.1030  0.0039  0.7151  -10.8165   0.0000   0.2893
  13.400   1.7910   0.01662   0.01161  -0.1024  0.0038  0.7154  -10.9517   0.0000   0.2886
  13.500   1.7977   0.01682   0.01181  -0.1018  0.0038  0.7158  -11.0874   0.0000   0.2879
  13.600   1.8043   0.01703   0.01202  -0.1013  0.0038  0.7161  -11.2225   0.0000   0.2872
  13.700   1.8107   0.01724   0.01223  -0.1007  0.0037  0.7165  -11.3576   0.0000   0.2864
  13.800   1.8171   0.01745   0.01245  -0.1001  0.0037  0.7168  -11.4928   0.0000   0.2857
  13.900   1.8233   0.01768   0.01268  -0.0995  0.0036  0.7171  -11.6276   0.0000   0.2850
  14.000   1.8295   0.01790   0.01291  -0.0989  0.0036  0.7174  -11.7632   0.0000   0.2843
  14.100   1.8356   0.01814   0.01316  -0.0983  0.0036  0.7177  -11.8983   0.0000   0.2836
  14.200   1.8417   0.01839   0.01340  -0.0977  0.0035  0.7179  -12.0333   0.0000   0.2829
  14.300   1.8477   0.01863   0.01365  -0.0970  0.0035  0.7181  -12.1690   0.0000   0.2822
  14.400   1.8534   0.01889   0.01392  -0.0964  0.0034  0.7183  -12.3031   0.0000   0.2815
  14.500   1.8591   0.01915   0.01418  -0.0958  0.0034  0.7185  -12.4369   0.0000   0.2808
  14.600   1.8648   0.01942   0.01445  -0.0951  0.0033  0.7187  -12.5716   0.0000   0.2801
  14.700   1.8703   0.01969   0.01473  -0.0945  0.0033  0.7189  -12.7052   0.0000   0.2794
  14.800   1.8758   0.01997   0.01501  -0.0938  0.0032  0.7191  -12.8397   0.0000   0.2787
  14.900   1.8814   0.02025   0.01530  -0.0932  0.0031  0.7192  -12.9746   0.0000   0.2780
  15.000   1.8867   0.02054   0.01560  -0.0925  0.0031  0.7194  -13.1084   0.0000   0.2773
  15.100   1.8921   0.02084   0.01590  -0.0919  0.0030  0.7195  -13.2430   0.0000   0.2767
  15.200   1.8974   0.02114   0.01621  -0.0912  0.0030  0.7197  -13.3776   0.0000   0.2760
  15.300   1.9024   0.02145   0.01653  -0.0905  0.0029  0.7198  -13.5102   0.0000   0.2753
  15.400   1.9075   0.02176   0.01685  -0.0899  0.0029  0.7199  -13.6433   0.0000   0.2746
  15.500   1.9124   0.02208   0.01718  -0.0892  0.0028  0.7200  -13.7761   0.0000   0.2739
  15.600   1.9171   0.02242   0.01752  -0.0885  0.0028  0.7201  -13.9078   0.0000   0.2732
  15.700   1.9220   0.02275   0.01786  -0.0878  0.0027  0.7202  -14.0412   0.0000   0.2726
  15.800   1.9267   0.02310   0.01822  -0.0871  0.0027  0.7202  -14.1735   0.0000   0.2719
  15.900   1.9313   0.02345   0.01859  -0.0865  0.0027  0.7208  -14.3050   0.0000   0.2712
  16.000   1.9362   0.02380   0.01894  -0.0858  0.0026  0.7213  -14.4403   0.0000   0.2706
  16.100   1.9411   0.02413   0.01929  -0.0852  0.0026  0.7218  -14.5786   0.0000   0.2699
  16.200   1.9459   0.02448   0.01964  -0.0846  0.0026  0.7224  -14.7161   0.0000   0.2693
  16.300   1.9509   0.02482   0.01999  -0.0840  0.0026  0.7229  -14.8553   0.0000   0.2687
  16.400   1.9555   0.02517   0.02035  -0.0834  0.0026  0.7234  -14.9921   0.0000   0.2680
  16.500   1.9599   0.02554   0.02073  -0.0827  0.0026  0.7239  -15.1274   0.0000   0.2674
  16.600   1.9645   0.02590   0.02110  -0.0821  0.0026  0.7244  -15.2650   0.0000   0.2667
  16.700   1.9689   0.02628   0.02149  -0.0814  0.0026  0.7248  -15.4010   0.0000   0.2661
  16.800   1.9731   0.02668   0.02190  -0.0808  0.0026  0.7252  -15.5361   0.0000   0.2655
  16.900   1.9775   0.02706   0.02229  -0.0802  0.0026  0.7256  -15.6736   0.0000   0.2648
  17.000   1.9816   0.02747   0.02271  -0.0796  0.0026  0.7260  -15.8089   0.0000   0.2642
  17.100   1.9857   0.02789   0.02314  -0.0789  0.0026  0.7263  -15.9436   0.0000   0.2636
  17.200   1.9899   0.02830   0.02356  -0.0783  0.0026  0.7266  -16.0809   0.0000   0.2630
  17.300   1.9938   0.02874   0.02401  -0.0777  0.0026  0.7269  -16.2155   0.0000   0.2624
  17.400   1.9977   0.02918   0.02447  -0.0771  0.0026  0.7272  -16.3499   0.0000   0.2618
  17.500   2.0017   0.02962   0.02491  -0.0765  0.0026  0.7275  -16.4870   0.0000   0.2612
  17.600   2.0054   0.03008   0.02539  -0.0759  0.0026  0.7278  -16.6201   0.0000   0.2606
  17.700   2.0089   0.03056   0.02587  -0.0753  0.0026  0.7281  -16.7528   0.0000   0.2600
  17.800   2.0126   0.03102   0.02635  -0.0747  0.0026  0.7284  -16.8879   0.0000   0.2594
  17.900   2.0159   0.03152   0.02686  -0.0741  0.0026  0.7287  -17.0189   0.0000   0.2588
  18.000   2.0193   0.03202   0.02737  -0.0735  0.0026  0.7290  -17.1521   0.0000   0.2582
  18.100   2.0229   0.03252   0.02788  -0.0729  0.0026  0.7292  -17.2867   0.0000   0.2576
  18.200   2.0260   0.03306   0.02844  -0.0723  0.0026  0.7295  -17.4170   0.0000   0.2570
  18.300   2.0293   0.03359   0.02898  -0.0718  0.0026  0.7297  -17.5502   0.0000   0.2564
  18.400   2.0326   0.03413   0.02953  -0.0712  0.0026  0.7299  -17.6832   0.0000   0.2559
  18.500   2.0355   0.03471   0.03012  -0.0707  0.0026  0.7301  -17.8125   0.0000   0.2553
  18.600   2.0387   0.03526   0.03069  -0.0701  0.0026  0.7303  -17.9457   0.0000   0.2548
  18.700   2.0415   0.03585   0.03129  -0.0696  0.0026  0.7305  -18.0757   0.0000   0.2542
  18.800   2.0443   0.03646   0.03191  -0.0691  0.0026  0.7306  -18.2045   0.0000   0.2537
  18.900   2.0473   0.03705   0.03251  -0.0686  0.0026  0.7308  -18.3367   0.0000   0.2531
  19.000   2.0497   0.03769   0.03317  -0.0681  0.0026  0.7309  -18.4631   0.0000   0.2526
  19.100   2.0523   0.03833   0.03381  -0.0675  0.0026  0.7310  -18.5915   0.0000   0.2520
  19.200   2.0548   0.03896   0.03447  -0.0670  0.0026  0.7311  -18.7191   0.0000   0.2515
  19.300   2.0567   0.03965   0.03517  -0.0665  0.0026  0.7312  -18.8415   0.0000   0.2510
  19.400   2.0591   0.04031   0.03584  -0.0660  0.0025  0.7313  -18.9691   0.0000   0.2504
  19.500   2.0610   0.04103   0.03658  -0.0656  0.0025  0.7314  -19.0911   0.0000   0.2499
  19.600   2.0630   0.04175   0.03731  -0.0651  0.0025  0.7315  -19.2148   0.0000   0.2494
  19.700   2.0651   0.04247   0.03804  -0.0646  0.0025  0.7315  -19.3394   0.0000   0.2489
  19.800   2.0666   0.04325   0.03883  -0.0642  0.0025  0.7316  -19.4584   0.0000   0.2484
  19.900   2.0686   0.04398   0.03959  -0.0638  0.0025  0.7319  -19.5830   0.0000   0.2479
  20.000   2.0699   0.04480   0.04042  -0.0634  0.0025  0.7323  -19.6999   0.0000   0.2474


