xflr5 v6.32

 Calculated polar for: foil1 modified

 1 1 Reynolds number fixed          Mach number fixed         

 xtrf =   1.000 (top)        1.000 (bottom)
 Mach =   0.000     Re =     0.500 e 6     Ncrit =   9.000

  alpha     CL        CD       CDp       Cm    Top Xtr Bot Xtr   Cpmin    Chinge    XCp    
 ------- -------- --------- --------- -------- ------- ------- -------- --------- ---------
 -14.100  -0.3944   0.14690   0.14442  -0.0475  1.0000  0.0207  -1.8342   0.0000   0.1061
 -14.000  -0.3931   0.14570   0.14322  -0.0478  1.0000  0.0209  -1.8290   0.0000   0.1049
 -13.900  -0.3923   0.14453   0.14207  -0.0481  1.0000  0.0210  -1.8266   0.0000   0.1043
 -13.800  -0.3925   0.14347   0.14102  -0.0480  1.0000  0.0212  -1.8273   0.0000   0.1046
 -13.700  -0.3941   0.14259   0.14015  -0.0477  1.0000  0.0213  -1.8311   0.0000   0.1063
 -13.600  -0.3976   0.14199   0.13957  -0.0467  1.0000  0.0215  -1.8382   0.0000   0.1102
 -13.500  -0.4032   0.14169   0.13929  -0.0452  1.0000  0.0216  -1.8478   0.0000   0.1161
  -8.200  -0.4015   0.02727   0.02221  -0.1178  0.9274  0.0240  -3.8115   0.0000  -0.0574
  -8.100  -0.3922   0.02690   0.02184  -0.1179  0.9267  0.0243  -3.7253   0.0000  -0.0647
  -8.000  -0.3832   0.02669   0.02164  -0.1180  0.9253  0.0247  -3.6347   0.0000  -0.0720
  -7.700  -0.3600   0.02152   0.01549  -0.1161  0.9213  0.0196  -4.0573   0.0000  -0.0871
  -7.600  -0.3503   0.02095   0.01486  -0.1160  0.9205  0.0196  -4.0115   0.0000  -0.0959
  -7.400  -0.3315   0.01988   0.01368  -0.1157  0.9182  0.0196  -3.9197   0.0000  -0.1140
  -7.300  -0.3222   0.01934   0.01309  -0.1155  0.9169  0.0197  -3.8741   0.0000  -0.1234
  -7.200  -0.3128   0.01880   0.01252  -0.1152  0.9158  0.0197  -3.8257   0.0000  -0.1337
  -7.100  -0.3033   0.01830   0.01199  -0.1150  0.9149  0.0198  -3.7738   0.0000  -0.1447
  -7.000  -0.2937   0.01783   0.01151  -0.1148  0.9141  0.0199  -3.7168   0.0000  -0.1566
  -6.900  -0.2840   0.01743   0.01110  -0.1147  0.9134  0.0201  -3.6502   0.0000  -0.1697
  -6.800  -0.2744   0.01713   0.01081  -0.1146  0.9123  0.0204  -3.5777   0.0000  -0.1836
  -6.700  -0.2651   0.01690   0.01058  -0.1144  0.9107  0.0206  -3.5051   0.0000  -0.1980
  -6.600  -0.2553   0.01667   0.01034  -0.1144  0.9095  0.0209  -3.4328   0.0000  -0.2145
  -6.500  -0.2453   0.01643   0.01009  -0.1143  0.9084  0.0211  -3.3620   0.0000  -0.2329
  -6.400  -0.2351   0.01618   0.00983  -0.1142  0.9075  0.0214  -3.2935   0.0000  -0.2531
  -6.300  -0.2249   0.01592   0.00955  -0.1142  0.9067  0.0216  -3.2278   0.0000  -0.2753
  -6.200  -0.2146   0.01566   0.00926  -0.1141  0.9060  0.0219  -3.1643   0.0000  -0.2998
  -6.100  -0.2054   0.01543   0.00903  -0.1140  0.9043  0.0221  -3.1052   0.0000  -0.3233
  -6.000  -0.1957   0.01520   0.00879  -0.1138  0.9029  0.0223  -3.0447   0.0000  -0.3506
  -5.900  -0.1856   0.01497   0.00853  -0.1138  0.9017  0.0225  -2.9826   0.0000  -0.3825
  -5.800  -0.1753   0.01475   0.00829  -0.1138  0.9008  0.0228  -2.9192   0.0000  -0.4194
  -5.700  -0.1647   0.01455   0.00806  -0.1138  0.8999  0.0231  -2.8543   0.0000  -0.4623
  -5.600  -0.1540   0.01432   0.00781  -0.1139  0.8992  0.0234  -2.7902   0.0000  -0.5114
  -5.500  -0.1442   0.01395   0.00746  -0.1140  0.8983  0.0238  -2.7311   0.0000  -0.5632
  -5.400  -0.1347   0.01375   0.00728  -0.1140  0.8965  0.0243  -2.6648   0.0000  -0.6203
  -5.300  -0.1243   0.01357   0.00710  -0.1140  0.8952  0.0249  -2.5950   0.0000  -0.6930
  -5.200  -0.1135   0.01340   0.00692  -0.1142  0.8941  0.0255  -2.5255   0.0000  -0.7829
  -5.100  -0.1025   0.01322   0.00673  -0.1143  0.8931  0.0262  -2.4572   0.0000  -0.8949
  -5.000  -0.0912   0.01306   0.00654  -0.1145  0.8923  0.0270  -2.3896   0.0000  -1.0372
  -4.900  -0.0801   0.01280   0.00628  -0.1147  0.8916  0.0280  -2.3240   0.0000  -1.2186
  -4.800  -0.0693   0.01264   0.00613  -0.1149  0.8904  0.0291  -2.2590   0.0000  -1.4467
  -4.700  -0.0589   0.01253   0.00602  -0.1149  0.8887  0.0306  -2.2055   0.0000  -1.7466
  -4.600  -0.0480   0.01236   0.00585  -0.1151  0.8875  0.0325  -2.1525   0.0000  -2.2016
  -4.500  -0.0368   0.01221   0.00571  -0.1153  0.8864  0.0350  -2.0939   0.0000  -2.9524
  -4.400  -0.0254   0.01202   0.00554  -0.1155  0.8855  0.0384  -2.0386   0.0000  -4.3941
  -4.300  -0.0139   0.01184   0.00536  -0.1158  0.8847  0.0433  -1.9834   0.0000  -8.2820
  -4.200  -0.0022   0.01163   0.00519  -0.1161  0.8840  0.0515  -1.9277   0.0000  -54.5941
  -4.100   0.0091   0.01139   0.00503  -0.1164  0.8830  0.0672  -1.8707   0.0000  13.2699
  -4.000   0.0195   0.01113   0.00492  -0.1166  0.8812  0.0961  -1.8124   0.0000   6.3311
  -3.900   0.0306   0.01080   0.00477  -0.1171  0.8799  0.1396  -1.7499   0.0000   4.1410
  -3.800   0.0422   0.01034   0.00458  -0.1178  0.8787  0.2095  -1.6857   0.0000   3.0929
  -3.700   0.0544   0.00960   0.00430  -0.1190  0.8777  0.3284  -1.6202   0.0000   2.4764
  -3.600   0.0672   0.00879   0.00401  -0.1204  0.8769  0.4710  -1.5521   0.0000   2.0708
  -3.500   0.0791   0.00841   0.00396  -0.1209  0.8762  0.5572  -1.4850   0.0000   1.8027
  -3.400   0.0901   0.00835   0.00403  -0.1209  0.8751  0.5980  -1.4202   0.0000   1.6122
  -3.300   0.1005   0.00839   0.00414  -0.1207  0.8733  0.6213  -1.3578   0.0000   1.4688
  -3.200   0.1115   0.00844   0.00423  -0.1207  0.8720  0.6363  -1.2941   0.0000   1.3470
  -3.100   0.1229   0.00850   0.00428  -0.1206  0.8709  0.6470  -1.2301   0.0000   1.2448
  -3.000   0.1345   0.00855   0.00432  -0.1207  0.8700  0.6556  -1.1662   0.0000   1.1587
  -2.900   0.1464   0.00859   0.00433  -0.1208  0.8691  0.6633  -1.1023   0.0000   1.0851
  -2.800   0.1579   0.00867   0.00440  -0.1207  0.8684  0.6687  -1.0399   0.0000   1.0234
  -2.700   0.1701   0.00873   0.00441  -0.1209  0.8676  0.6756  -0.9769   0.0000   0.9686
  -2.600   0.1800   0.00887   0.00458  -0.1205  0.8656  0.6792  -0.9205   0.0000   0.9269
  -2.500   0.1912   0.00896   0.00466  -0.1205  0.8641  0.6842  -0.8615   0.0000   0.8868
  -2.400   0.2023   0.00907   0.00476  -0.1204  0.8628  0.6884  -0.8032   0.0000   0.8507
  -2.300   0.2132   0.00922   0.00492  -0.1201  0.8618  0.6921  -0.7461   0.0000   0.8184
  -2.200   0.2251   0.00934   0.00499  -0.1201  0.8608  0.6981  -0.6875   0.0000   0.7883
  -2.100   0.2355   0.00955   0.00523  -0.1196  0.8600  0.7008  -0.6328   0.0000   0.7620
  -2.000   0.2455   0.00979   0.00549  -0.1191  0.8586  0.7045  -0.5801   0.0000   0.7388
  -1.900   0.2561   0.00995   0.00563  -0.1189  0.8567  0.7096  -0.5324   0.0000   0.7176
  -1.800   0.2658   0.01014   0.00585  -0.1183  0.8553  0.7112  -0.5369   0.0000   0.6980
  -1.700   0.2764   0.01025   0.00597  -0.1180  0.8541  0.7127  -0.5421   0.0000   0.6795
  -1.600   0.2878   0.01030   0.00600  -0.1179  0.8531  0.7139  -0.5475   0.0000   0.6622
  -1.500   0.2995   0.01031   0.00600  -0.1180  0.8522  0.7152  -0.5531   0.0000   0.6460
  -1.400   0.3116   0.01030   0.00596  -0.1182  0.8514  0.7167  -0.5589   0.0000   0.6311
  -1.300   0.3228   0.01029   0.00593  -0.1184  0.8493  0.7190  -0.5640   0.0000   0.6182
  -1.200   0.3344   0.01027   0.00589  -0.1186  0.8476  0.7206  -0.5694   0.0000   0.6059
  -1.100   0.3454   0.01028   0.00590  -0.1185  0.8462  0.7212  -0.5748   0.0000   0.5941
  -1.000   0.3568   0.01029   0.00590  -0.1185  0.8450  0.7218  -0.5807   0.0000   0.5829
  -0.900   0.3683   0.01029   0.00589  -0.1185  0.8439  0.7225  -0.5867   0.0000   0.5724
  -0.800   0.3801   0.01029   0.00588  -0.1186  0.8430  0.7232  -0.5928   0.0000   0.5624
  -0.700   0.3903   0.01032   0.00592  -0.1184  0.8409  0.7240  -0.5980   0.0000   0.5536
  -0.600   0.4011   0.01034   0.00594  -0.1183  0.8390  0.7248  -0.6035   0.0000   0.5451
  -0.500   0.4125   0.01034   0.00593  -0.1184  0.8375  0.7258  -0.6094   0.0000   0.5369
  -0.400   0.4243   0.01032   0.00590  -0.1185  0.8363  0.7268  -0.6154   0.0000   0.5290
  -0.300   0.4364   0.01029   0.00585  -0.1187  0.8352  0.7281  -0.6217   0.0000   0.5216
  -0.200   0.4491   0.01025   0.00577  -0.1191  0.8342  0.7297  -0.6287   0.0000   0.5147
  -0.100   0.4605   0.01022   0.00573  -0.1194  0.8317  0.7318  -0.6351   0.0000   0.5086
   0.000   0.4713   0.01021   0.00573  -0.1193  0.8298  0.7323  -0.6413   0.0000   0.5023
   0.100   0.4826   0.01020   0.00572  -0.1193  0.8283  0.7328  -0.6480   0.0000   0.4962
   0.200   0.4941   0.01018   0.00570  -0.1194  0.8269  0.7333  -0.6551   0.0000   0.4904
   0.300   0.5059   0.01017   0.00567  -0.1194  0.8257  0.7340  -0.6624   0.0000   0.4848
   0.400   0.5161   0.01018   0.00570  -0.1193  0.8233  0.7346  -0.6691   0.0000   0.4797
   0.500   0.5269   0.01018   0.00571  -0.1192  0.8211  0.7353  -0.6763   0.0000   0.4746
   0.600   0.5382   0.01017   0.00570  -0.1192  0.8194  0.7360  -0.6837   0.0000   0.4698
   0.700   0.5499   0.01015   0.00566  -0.1193  0.8179  0.7368  -0.6918   0.0000   0.4651
   0.800   0.5620   0.01012   0.00562  -0.1195  0.8165  0.7377  -0.7003   0.0000   0.4607
   0.900   0.5724   0.01012   0.00564  -0.1194  0.8137  0.7387  -0.7082   0.0000   0.4566
   1.000   0.5839   0.01009   0.00561  -0.1195  0.8115  0.7399  -0.7172   0.0000   0.4526
   1.100   0.5961   0.01005   0.00555  -0.1198  0.8096  0.7413  -0.7268   0.0000   0.4488
   1.200   0.6094   0.00999   0.00546  -0.1204  0.8081  0.7431  -0.7368   0.0000   0.4452
   1.300   0.6197   0.00998   0.00546  -0.1202  0.8054  0.7436  -0.7459   0.0000   0.4416
   1.400   0.6303   0.00997   0.00546  -0.1201  0.8027  0.7441  -0.7557   0.0000   0.4380
   1.500   0.6415   0.00994   0.00544  -0.1201  0.8005  0.7446  -0.7658   0.0000   0.4345
   1.600   0.6532   0.00992   0.00541  -0.1201  0.7986  0.7452  -0.7766   0.0000   0.4312
   1.700   0.6633   0.00992   0.00544  -0.1199  0.7955  0.7457  -0.7873   0.0000   0.4280
   1.800   0.6741   0.00991   0.00543  -0.1199  0.7928  0.7463  -0.7985   0.0000   0.4248
   1.900   0.6856   0.00988   0.00540  -0.1199  0.7905  0.7469  -0.8102   0.0000   0.4218
   2.000   0.6968   0.00987   0.00539  -0.1199  0.7879  0.7476  -0.8217   0.0000   0.4189
   2.100   0.7073   0.00986   0.00540  -0.1198  0.7846  0.7483  -0.8328   0.0000   0.4161
   2.200   0.7187   0.00984   0.00537  -0.1199  0.7818  0.7491  -0.8452   0.0000   0.4134
   2.300   0.7303   0.00981   0.00534  -0.1200  0.7793  0.7500  -0.8587   0.0000   0.4108
   2.400   0.7410   0.00981   0.00535  -0.1200  0.7755  0.7510  -0.8732   0.0000   0.4083
   2.500   0.7526   0.00979   0.00533  -0.1201  0.7726  0.7522  -0.8933   0.0000   0.4059
   2.600   0.7651   0.00976   0.00528  -0.1205  0.7702  0.7536  -0.9152   0.0000   0.4037
   2.700   0.7760   0.00975   0.00528  -0.1205  0.7664  0.7548  -0.9377   0.0000   0.4014
   2.800   0.7868   0.00974   0.00528  -0.1205  0.7632  0.7552  -0.9615   0.0000   0.3991
   2.900   0.7981   0.00972   0.00526  -0.1205  0.7605  0.7557  -0.9878   0.0000   0.3968
   3.000   0.8081   0.00972   0.00529  -0.1203  0.7560  0.7562  -1.0133   0.0000   0.3946
   3.100   0.8189   0.00971   0.00527  -0.1202  0.7520  0.7567  -1.0422   0.0000   0.3924
   3.200   0.8292   0.00970   0.00528  -0.1200  0.7468  0.7572  -1.0740   0.0000   0.3903
   3.300   0.8399   0.00969   0.00526  -0.1199  0.7416  0.7577  -1.1078   0.0000   0.3882
   3.400   0.8499   0.00969   0.00527  -0.1196  0.7350  0.7582  -1.1409   0.0000   0.3862
   3.500   0.8603   0.00969   0.00526  -0.1195  0.7290  0.7589  -1.1770   0.0000   0.3842
   3.600   0.8707   0.00970   0.00526  -0.1193  0.7225  0.7596  -1.2185   0.0000   0.3822
   3.700   0.8809   0.00971   0.00527  -0.1192  0.7158  0.7603  -1.2604   0.0000   0.3803
   3.800   0.8914   0.00973   0.00528  -0.1190  0.7093  0.7611  -1.3029   0.0000   0.3785
   3.900   0.9017   0.00975   0.00529  -0.1189  0.7021  0.7619  -1.3456   0.0000   0.3767
   4.000   0.9121   0.00978   0.00531  -0.1188  0.6945  0.7629  -1.3887   0.0000   0.3750
   4.100   0.9225   0.00981   0.00532  -0.1187  0.6865  0.7639  -1.4323   0.0000   0.3733
   4.200   0.9330   0.00985   0.00533  -0.1186  0.6780  0.7650  -1.4802   0.0000   0.3717
   4.300   0.9436   0.00991   0.00535  -0.1186  0.6685  0.7661  -1.5369   0.0000   0.3701
   4.400   0.9528   0.00996   0.00537  -0.1182  0.6581  0.7665  -1.5907   0.0000   0.3684
   4.500   0.9619   0.01002   0.00540  -0.1178  0.6470  0.7670  -1.6446   0.0000   0.3667
   4.600   0.9707   0.01009   0.00546  -0.1174  0.6349  0.7675  -1.6986   0.0000   0.3650
   4.700   0.9794   0.01019   0.00551  -0.1169  0.6219  0.7680  -1.7525   0.0000   0.3634
   4.800   0.9877   0.01030   0.00558  -0.1164  0.6080  0.7685  -1.8060   0.0000   0.3617
   4.900   0.9956   0.01043   0.00565  -0.1158  0.5935  0.7691  -1.8631   0.0000   0.3601
   5.000   1.0035   0.01056   0.00574  -0.1152  0.5781  0.7697  -1.9210   0.0000   0.3584
   5.100   1.0109   0.01073   0.00583  -0.1145  0.5617  0.7703  -1.9781   0.0000   0.3568
   5.200   1.0181   0.01090   0.00594  -0.1138  0.5438  0.7710  -2.0347   0.0000   0.3552
   5.300   1.0246   0.01111   0.00605  -0.1130  0.5243  0.7717  -2.0900   0.0000   0.3536
   5.400   1.0309   0.01134   0.00619  -0.1122  0.5035  0.7724  -2.1449   0.0000   0.3520
   5.500   1.0369   0.01158   0.00633  -0.1113  0.4813  0.7731  -2.1992   0.0000   0.3504
   5.600   1.0426   0.01185   0.00649  -0.1104  0.4585  0.7738  -2.2530   0.0000   0.3489
   5.700   1.0482   0.01213   0.00665  -0.1095  0.4354  0.7746  -2.3066   0.0000   0.3473
   5.900   1.0597   0.01270   0.00699  -0.1079  0.3906  0.7764  -2.4162   0.0000   0.3444
   6.000   1.0657   0.01300   0.00718  -0.1071  0.3689  0.7773  -2.4724   0.0000   0.3430
   6.100   1.0714   0.01328   0.00735  -0.1063  0.3480  0.7779  -2.5277   0.0000   0.3416
   6.200   1.0766   0.01356   0.00754  -0.1054  0.3274  0.7784  -2.5820   0.0000   0.3401
   6.300   1.0812   0.01384   0.00773  -0.1043  0.3069  0.7789  -2.6346   0.0000   0.3386
   6.400   1.0853   0.01414   0.00793  -0.1032  0.2864  0.7794  -2.6859   0.0000   0.3370
   6.500   1.0893   0.01445   0.00813  -0.1020  0.2659  0.7799  -2.7369   0.0000   0.3355
   6.600   1.0934   0.01477   0.00835  -0.1009  0.2452  0.7804  -2.7886   0.0000   0.3340
   6.700   1.0975   0.01512   0.00858  -0.0998  0.2244  0.7810  -2.8402   0.0000   0.3326
   6.800   1.1020   0.01547   0.00883  -0.0989  0.2038  0.7815  -2.8978   0.0000   0.3312
   6.900   1.1069   0.01584   0.00909  -0.0980  0.1836  0.7822  -2.9576   0.0000   0.3299
   7.000   1.1120   0.01621   0.00935  -0.0971  0.1643  0.7828  -3.0185   0.0000   0.3286
   7.100   1.1172   0.01658   0.00962  -0.0963  0.1469  0.7835  -3.0802   0.0000   0.3274
   7.200   1.1227   0.01694   0.00989  -0.0956  0.1316  0.7842  -3.1432   0.0000   0.3262
   7.300   1.1284   0.01728   0.01015  -0.0949  0.1187  0.7849  -3.2074   0.0000   0.3250
   7.400   1.1344   0.01761   0.01042  -0.0942  0.1071  0.7855  -3.2730   0.0000   0.3238
   7.500   1.1406   0.01793   0.01068  -0.0936  0.0973  0.7862  -3.3396   0.0000   0.3227
   7.600   1.1470   0.01823   0.01094  -0.0930  0.0885  0.7868  -3.4074   0.0000   0.3216
   7.700   1.1534   0.01854   0.01120  -0.0924  0.0808  0.7874  -3.4755   0.0000   0.3205
   7.800   1.1599   0.01885   0.01147  -0.0919  0.0739  0.7881  -3.5440   0.0000   0.3195
   7.900   1.1663   0.01917   0.01174  -0.0913  0.0678  0.7888  -3.6128   0.0000   0.3184
   8.000   1.1728   0.01947   0.01201  -0.0907  0.0623  0.7894  -3.6818   0.0000   0.3174
   8.100   1.1790   0.01975   0.01228  -0.0901  0.0576  0.7898  -3.7500   0.0000   0.3163
   8.200   1.1851   0.02004   0.01255  -0.0895  0.0535  0.7903  -3.8181   0.0000   0.3152
   8.300   1.1911   0.02034   0.01284  -0.0888  0.0499  0.7908  -3.8856   0.0000   0.3141
   8.400   1.1971   0.02065   0.01314  -0.0881  0.0466  0.7913  -3.9538   0.0000   0.3131
   8.500   1.2034   0.02093   0.01343  -0.0875  0.0437  0.7917  -4.0226   0.0000   0.3120
   8.700   1.2155   0.02155   0.01405  -0.0862  0.0389  0.7927  -4.1593   0.0000   0.3100
   8.800   1.2209   0.02191   0.01439  -0.0855  0.0371  0.7933  -4.2256   0.0000   0.3090
   8.900   1.2271   0.02221   0.01471  -0.0849  0.0353  0.7939  -4.2936   0.0000   0.3080
   9.000   1.2331   0.02252   0.01503  -0.0843  0.0337  0.7944  -4.3624   0.0000   0.3070
   9.100   1.2378   0.02294   0.01544  -0.0835  0.0324  0.7950  -4.4247   0.0000   0.3060
   9.200   1.2443   0.02323   0.01576  -0.0830  0.0310  0.7956  -4.4940   0.0000   0.3050
   9.300   1.2503   0.02355   0.01610  -0.0824  0.0299  0.7962  -4.5632   0.0000   0.3041
   9.400   1.2549   0.02398   0.01652  -0.0816  0.0289  0.7967  -4.6333   0.0000   0.3031
   9.500   1.2601   0.02438   0.01694  -0.0809  0.0280  0.7972  -4.7033   0.0000   0.3021
   9.600   1.2662   0.02471   0.01729  -0.0804  0.0270  0.7978  -4.7796   0.0000   0.3012
   9.700   1.2720   0.02506   0.01766  -0.0798  0.0261  0.7983  -4.8563   0.0000   0.3003
   9.800   1.2770   0.02547   0.01807  -0.0792  0.0254  0.7988  -4.9303   0.0000   0.2994
   9.900   1.2796   0.02606   0.01865  -0.0782  0.0247  0.7993  -4.9897   0.0000   0.2984
  10.000   1.2861   0.02637   0.01900  -0.0777  0.0241  0.7998  -5.0689   0.0000   0.2976
  10.100   1.2920   0.02673   0.01939  -0.0772  0.0234  0.8002  -5.1460   0.0000   0.2967
  10.200   1.2976   0.02711   0.01979  -0.0766  0.0228  0.8007  -5.2236   0.0000   0.2959
  10.300   1.3026   0.02750   0.02020  -0.0760  0.0223  0.8012  -5.3000   0.0000   0.2950
  10.400   1.3066   0.02796   0.02067  -0.0753  0.0218  0.8016  -5.3710   0.0000   0.2941
  10.500   1.3083   0.02860   0.02132  -0.0742  0.0214  0.8020  -5.4274   0.0000   0.2931
  10.600   1.3125   0.02907   0.02182  -0.0735  0.0210  0.8025  -5.4952   0.0000   0.2922
  10.700   1.3176   0.02947   0.02228  -0.0729  0.0206  0.8030  -5.5682   0.0000   0.2914
  10.800   1.3222   0.02991   0.02275  -0.0722  0.0203  0.8034  -5.6398   0.0000   0.2905
  10.900   1.3267   0.03037   0.02325  -0.0716  0.0199  0.8039  -5.7114   0.0000   0.2897
  11.000   1.3310   0.03084   0.02375  -0.0709  0.0196  0.8043  -5.7834   0.0000   0.2889
  11.100   1.3352   0.03133   0.02425  -0.0703  0.0193  0.8048  -5.8559   0.0000   0.2880
  11.200   1.3392   0.03183   0.02478  -0.0696  0.0190  0.8052  -5.9277   0.0000   0.2872
  11.300   1.3427   0.03237   0.02534  -0.0689  0.0187  0.8057  -5.9976   0.0000   0.2864
  11.400   1.3454   0.03299   0.02597  -0.0682  0.0185  0.8061  -6.0625   0.0000   0.2856
  11.500   1.3467   0.03373   0.02672  -0.0673  0.0182  0.8065  -6.1172   0.0000   0.2847
  11.600   1.3473   0.03455   0.02756  -0.0663  0.0180  0.8070  -6.1642   0.0000   0.2838
  11.700   1.3518   0.03505   0.02811  -0.0657  0.0178  0.8074  -6.2377   0.0000   0.2830
  11.800   1.3559   0.03558   0.02869  -0.0651  0.0176  0.8079  -6.3148   0.0000   0.2823
  11.900   1.3597   0.03614   0.02929  -0.0645  0.0174  0.8084  -6.3902   0.0000   0.2815
  12.000   1.3633   0.03673   0.02992  -0.0639  0.0172  0.8089  -6.4646   0.0000   0.2808
  12.100   1.3668   0.03732   0.03055  -0.0633  0.0170  0.8094  -6.5393   0.0000   0.2800
  12.200   1.3703   0.03792   0.03119  -0.0627  0.0168  0.8099  -6.6146   0.0000   0.2793
  12.300   1.3737   0.03852   0.03182  -0.0621  0.0166  0.8104  -6.6911   0.0000   0.2786
  12.400   1.3772   0.03913   0.03246  -0.0616  0.0164  0.8109  -6.7688   0.0000   0.2779
  12.500   1.3806   0.03976   0.03311  -0.0610  0.0162  0.8114  -6.8473   0.0000   0.2772
  12.600   1.3839   0.04039   0.03377  -0.0605  0.0160  0.8118  -6.9264   0.0000   0.2766
  12.800   1.3896   0.04172   0.03514  -0.0594  0.0156  0.8125  -7.0807   0.0000   0.2753
  12.900   1.3917   0.04246   0.03589  -0.0588  0.0155  0.8128  -7.1526   0.0000   0.2746
  13.000   1.3929   0.04329   0.03674  -0.0581  0.0153  0.8132  -7.2162   0.0000   0.2739
  13.100   1.3931   0.04426   0.03774  -0.0572  0.0151  0.8135  -7.2664   0.0000   0.2731
  13.200   1.3953   0.04504   0.03856  -0.0566  0.0150  0.8138  -7.3318   0.0000   0.2724
  13.300   1.3983   0.04571   0.03930  -0.0561  0.0149  0.8142  -7.4052   0.0000   0.2718
  13.400   1.4010   0.04643   0.04008  -0.0556  0.0147  0.8146  -7.4762   0.0000   0.2712
  13.500   1.4035   0.04718   0.04089  -0.0551  0.0146  0.8150  -7.5451   0.0000   0.2705
  13.600   1.4059   0.04795   0.04172  -0.0546  0.0145  0.8154  -7.6128   0.0000   0.2699
  13.700   1.4081   0.04875   0.04256  -0.0541  0.0144  0.8159  -7.6797   0.0000   0.2693
  13.800   1.4102   0.04956   0.04344  -0.0536  0.0143  0.8163  -7.7458   0.0000   0.2687
  13.900   1.4122   0.05040   0.04433  -0.0531  0.0141  0.8168  -7.8116   0.0000   0.2681
  14.000   1.4140   0.05125   0.04523  -0.0527  0.0140  0.8173  -7.8767   0.0000   0.2676
  14.100   1.4158   0.05212   0.04615  -0.0522  0.0139  0.8177  -7.9414   0.0000   0.2670
  14.200   1.4174   0.05300   0.04707  -0.0518  0.0138  0.8181  -8.0060   0.0000   0.2665
  14.300   1.4189   0.05391   0.04803  -0.0514  0.0137  0.8185  -8.0693   0.0000   0.2660
  14.400   1.4203   0.05483   0.04901  -0.0510  0.0136  0.8189  -8.1325   0.0000   0.2654
  14.500   1.4215   0.05578   0.05001  -0.0506  0.0135  0.8193  -8.1953   0.0000   0.2650
  14.600   1.4227   0.05675   0.05102  -0.0503  0.0134  0.8197  -8.2579   0.0000   0.2645
  14.700   1.4238   0.05774   0.05206  -0.0499  0.0133  0.8201  -8.3203   0.0000   0.2640
  14.800   1.4248   0.05875   0.05311  -0.0496  0.0132  0.8205  -8.3822   0.0000   0.2636
  14.900   1.4257   0.05978   0.05418  -0.0493  0.0131  0.8209  -8.4439   0.0000   0.2632
  15.000   1.4265   0.06083   0.05527  -0.0491  0.0130  0.8212  -8.5050   0.0000   0.2628
  15.100   1.4272   0.06189   0.05637  -0.0488  0.0130  0.8216  -8.5656   0.0000   0.2624
  15.200   1.4277   0.06299   0.05751  -0.0486  0.0129  0.8220  -8.6250   0.0000   0.2620
  15.300   1.4281   0.06410   0.05866  -0.0483  0.0128  0.8223  -8.6834   0.0000   0.2616
  15.400   1.4283   0.06524   0.05983  -0.0481  0.0127  0.8227  -8.7394   0.0000   0.2612
  15.500   1.4284   0.06641   0.06104  -0.0479  0.0127  0.8230  -8.7934   0.0000   0.2609
  15.600   1.4282   0.06763   0.06229  -0.0476  0.0126  0.8233  -8.8436   0.0000   0.2605
  15.700   1.4276   0.06891   0.06361  -0.0473  0.0125  0.8236  -8.8869   0.0000   0.2601
  15.800   1.4262   0.07031   0.06507  -0.0469  0.0124  0.8239  -8.9180   0.0000   0.2597
  15.900   1.4233   0.07197   0.06679  -0.0465  0.0123  0.8242  -8.9270   0.0000   0.2592
  16.000   1.4208   0.07351   0.06842  -0.0466  0.0123  0.8246  -8.9568   0.0000   0.2591
  16.100   1.4181   0.07511   0.07011  -0.0467  0.0122  0.8249  -8.9840   0.0000   0.2590
  16.200   1.4152   0.07676   0.07185  -0.0469  0.0122  0.8253  -9.0088   0.0000   0.2590
  16.300   1.4122   0.07847   0.07364  -0.0471  0.0122  0.8257  -9.0310   0.0000   0.2590
  16.400   1.4090   0.08023   0.07549  -0.0473  0.0121  0.8260  -9.0504   0.0000   0.2590
  16.500   1.4055   0.08206   0.07740  -0.0477  0.0121  0.8264  -9.0667   0.0000   0.2591
  16.600   1.4017   0.08394   0.07937  -0.0480  0.0120  0.8267  -9.0798   0.0000   0.2592
  16.700   1.3977   0.08589   0.08140  -0.0484  0.0120  0.8271  -9.0898   0.0000   0.2594
  16.800   1.3934   0.08790   0.08350  -0.0489  0.0119  0.8274  -9.0968   0.0000   0.2596
  16.900   1.3890   0.08998   0.08566  -0.0495  0.0119  0.8277  -9.1008   0.0000   0.2599
  17.000   1.3844   0.09213   0.08790  -0.0501  0.0118  0.8280  -9.1017   0.0000   0.2602
  17.100   1.3795   0.09435   0.09020  -0.0508  0.0118  0.8283  -9.0995   0.0000   0.2606
  17.200   1.3744   0.09665   0.09258  -0.0516  0.0118  0.8286  -9.0939   0.0000   0.2611
  17.300   1.3691   0.09901   0.09503  -0.0525  0.0117  0.8289  -9.0850   0.0000   0.2617
  17.400   1.3636   0.10146   0.09756  -0.0534  0.0117  0.8292  -9.0726   0.0000   0.2623
  17.500   1.3579   0.10399   0.10016  -0.0545  0.0117  0.8294  -9.0564   0.0000   0.2630
  17.600   1.3520   0.10659   0.10285  -0.0556  0.0116  0.8297  -9.0361   0.0000   0.2638
  17.700   1.3458   0.10928   0.10562  -0.0569  0.0116  0.8300  -9.0119   0.0000   0.2646
  17.800   1.3394   0.11206   0.10848  -0.0582  0.0116  0.8302  -8.9831   0.0000   0.2656
  17.900   1.3327   0.11493   0.11143  -0.0596  0.0116  0.8305  -8.9496   0.0000   0.2666
  18.000   1.3258   0.11789   0.11447  -0.0611  0.0116  0.8307  -8.9109   0.0000   0.2678
  18.100   1.3185   0.12094   0.11761  -0.0628  0.0116  0.8310  -8.8668   0.0000   0.2690
  18.200   1.3110   0.12412   0.12086  -0.0645  0.0115  0.8312  -8.8169   0.0000   0.2704
  18.300   1.3033   0.12742   0.12425  -0.0664  0.0115  0.8314  -8.7609   0.0000   0.2719
  18.400   1.2953   0.13083   0.12773  -0.0684  0.0116  0.8316  -8.6984   0.0000   0.2736
  18.500   1.2870   0.13440   0.13138  -0.0706  0.0116  0.8318  -8.6287   0.0000   0.2754
  18.600   1.2785   0.13810   0.13516  -0.0729  0.0116  0.8320  -8.5514   0.0000   0.2773
  18.700   1.2697   0.14195   0.13909  -0.0753  0.0116  0.8321  -8.4659   0.0000   0.2794
  18.800   1.2605   0.14597   0.14319  -0.0779  0.0116  0.8323  -8.3706   0.0000   0.2817
  18.900   1.2509   0.15018   0.14748  -0.0806  0.0116  0.8324  -8.2647   0.0000   0.2842
  19.000   1.2410   0.15461   0.15199  -0.0836  0.0117  0.8326  -8.1461   0.0000   0.2869
  19.100   1.2305   0.15928   0.15674  -0.0867  0.0117  0.8327  -8.0126   0.0000   0.2899
  19.200   1.2193   0.16427   0.16181  -0.0901  0.0118  0.8327  -7.8611   0.0000   0.2932
  19.300   1.2075   0.16963   0.16724  -0.0937  0.0119  0.8328  -7.6867   0.0000   0.2968
  19.400   1.1945   0.17540   0.17309  -0.0977  0.0119  0.8328  -7.4826   0.0000   0.3008
  19.500   1.1802   0.18180   0.17956  -0.1019  0.0120  0.8327  -7.2371   0.0000   0.3054
  19.600   1.1637   0.18917   0.18699  -0.1068  0.0122  0.8325  -6.9275   0.0000   0.3108


