xflr5 v6.32

 Calculated polar for: foil1 modified

 1 1 Reynolds number fixed          Mach number fixed         

 xtrf =   1.000 (top)        1.000 (bottom)
 Mach =   0.000     Re =     5.000 e 6     Ncrit =   9.000

  alpha     CL        CD       CDp       Cm    Top Xtr Bot Xtr   Cpmin    Chinge    XCp    
 ------- -------- --------- --------- -------- ------- ------- -------- --------- ---------
 -15.000  -1.0222   0.03142   0.02876  -0.0987  0.9121  0.0058  -13.5119   0.0000   0.1334
 -14.900  -1.0219   0.03053   0.02783  -0.0988  0.9102  0.0058  -13.4602   0.0000   0.1335
 -14.800  -1.0211   0.02971   0.02696  -0.0987  0.9083  0.0058  -13.4026   0.0000   0.1337
 -14.700  -1.0200   0.02892   0.02613  -0.0987  0.9065  0.0058  -13.3423   0.0000   0.1339
 -14.600  -1.0183   0.02817   0.02534  -0.0986  0.9048  0.0058  -13.2755   0.0000   0.1340
 -14.500  -1.0163   0.02746   0.02459  -0.0986  0.9031  0.0058  -13.2054   0.0000   0.1341
 -14.400  -1.0140   0.02678   0.02387  -0.0985  0.9014  0.0058  -13.1315   0.0000   0.1342
 -14.300  -1.0113   0.02614   0.02319  -0.0984  0.8998  0.0058  -13.0543   0.0000   0.1342
 -14.200  -1.0083   0.02553   0.02253  -0.0983  0.8983  0.0058  -12.9735   0.0000   0.1342
 -14.100  -1.0048   0.02493   0.02190  -0.0982  0.8969  0.0058  -12.8890   0.0000   0.1342
 -14.000  -1.0010   0.02436   0.02130  -0.0981  0.8954  0.0058  -12.8013   0.0000   0.1341
 -13.900  -0.9971   0.02382   0.02072  -0.0980  0.8940  0.0058  -12.7116   0.0000   0.1340
 -13.800  -0.9927   0.02330   0.02017  -0.0979  0.8926  0.0058  -12.6185   0.0000   0.1338
 -13.700  -0.9882   0.02280   0.01964  -0.0978  0.8912  0.0058  -12.5239   0.0000   0.1336
 -13.600  -0.9832   0.02232   0.01912  -0.0977  0.8900  0.0058  -12.4250   0.0000   0.1334
 -13.500  -0.9780   0.02184   0.01862  -0.0977  0.8887  0.0058  -12.3245   0.0000   0.1331
 -13.400  -0.9725   0.02139   0.01814  -0.0977  0.8873  0.0058  -12.2216   0.0000   0.1327
 -13.300  -0.9667   0.02096   0.01767  -0.0976  0.8859  0.0058  -12.1169   0.0000   0.1323
 -13.200  -0.9609   0.02054   0.01722  -0.0976  0.8845  0.0058  -12.0109   0.0000   0.1319
 -13.100  -0.9551   0.02015   0.01680  -0.0975  0.8832  0.0058  -11.9056   0.0000   0.1315
 -13.000  -0.9484   0.01976   0.01638  -0.0976  0.8821  0.0058  -11.7941   0.0000   0.1308
 -12.900  -0.9405   0.01936   0.01596  -0.0980  0.8810  0.0058  -11.6735   0.0000   0.1297
 -12.800  -0.9322   0.01898   0.01555  -0.0983  0.8799  0.0058  -11.5506   0.0000   0.1286
 -12.700  -0.9236   0.01861   0.01516  -0.0987  0.8788  0.0058  -11.4256   0.0000   0.1274
 -12.600  -0.9148   0.01826   0.01478  -0.0990  0.8777  0.0058  -11.2989   0.0000   0.1261
 -12.500  -0.9101   0.01726   0.01367  -0.0995  0.8764  0.0059  -11.2795   0.0000   0.1251
 -12.400  -0.9063   0.01608   0.01235  -0.0999  0.8751  0.0059  -11.3023   0.0000   0.1244
 -12.300  -0.9004   0.01525   0.01142  -0.1000  0.8740  0.0060  -11.2768   0.0000   0.1236
 -12.200  -0.8927   0.01467   0.01077  -0.1002  0.8730  0.0061  -11.2092   0.0000   0.1226
 -12.100  -0.8839   0.01425   0.01031  -0.1004  0.8721  0.0062  -11.1123   0.0000   0.1214
 -12.000  -0.8745   0.01393   0.00996  -0.1006  0.8712  0.0063  -10.9974   0.0000   0.1201
 -11.900  -0.8647   0.01367   0.00967  -0.1007  0.8703  0.0063  -10.8722   0.0000   0.1187
 -11.800  -0.8546   0.01344   0.00943  -0.1009  0.8694  0.0064  -10.7403   0.0000   0.1172
 -11.700  -0.8444   0.01324   0.00921  -0.1011  0.8685  0.0064  -10.6041   0.0000   0.1157
 -11.600  -0.8341   0.01306   0.00901  -0.1013  0.8676  0.0065  -10.4650   0.0000   0.1141
 -11.500  -0.8236   0.01288   0.00882  -0.1015  0.8669  0.0065  -10.3234   0.0000   0.1124
 -11.400  -0.8129   0.01272   0.00865  -0.1017  0.8661  0.0066  -10.1807   0.0000   0.1106
 -11.300  -0.8023   0.01256   0.00848  -0.1019  0.8653  0.0066  -10.0376   0.0000   0.1088
 -11.200  -0.7916   0.01241   0.00832  -0.1021  0.8644  0.0066  -9.8945   0.0000   0.1070
 -11.100  -0.7808   0.01226   0.00817  -0.1023  0.8635  0.0067  -9.7516   0.0000   0.1050
 -11.000  -0.7701   0.01212   0.00802  -0.1024  0.8627  0.0067  -9.6092   0.0000   0.1030
 -10.900  -0.7593   0.01198   0.00787  -0.1026  0.8618  0.0068  -9.4674   0.0000   0.1010
 -10.800  -0.7485   0.01185   0.00772  -0.1028  0.8609  0.0068  -9.3263   0.0000   0.0989
 -10.700  -0.7377   0.01171   0.00758  -0.1030  0.8601  0.0068  -9.1859   0.0000   0.0967
 -10.600  -0.7268   0.01158   0.00744  -0.1032  0.8593  0.0069  -9.0460   0.0000   0.0944
 -10.500  -0.7158   0.01145   0.00730  -0.1034  0.8586  0.0069  -8.9064   0.0000   0.0920
 -10.400  -0.7048   0.01132   0.00717  -0.1036  0.8579  0.0069  -8.7677   0.0000   0.0895
 -10.300  -0.6938   0.01119   0.00703  -0.1038  0.8571  0.0070  -8.6298   0.0000   0.0869
 -10.200  -0.6827   0.01106   0.00690  -0.1040  0.8563  0.0070  -8.4929   0.0000   0.0843
 -10.100  -0.6717   0.01093   0.00676  -0.1042  0.8554  0.0071  -8.3569   0.0000   0.0815
 -10.000  -0.6606   0.01081   0.00663  -0.1044  0.8546  0.0071  -8.2219   0.0000   0.0787
  -9.900  -0.6496   0.01069   0.00650  -0.1046  0.8537  0.0071  -8.0878   0.0000   0.0757
  -9.800  -0.6385   0.01057   0.00637  -0.1048  0.8529  0.0072  -7.9547   0.0000   0.0727
  -9.700  -0.6274   0.01045   0.00624  -0.1050  0.8520  0.0072  -7.8225   0.0000   0.0695
  -9.600  -0.6163   0.01033   0.00611  -0.1052  0.8511  0.0072  -7.6909   0.0000   0.0662
  -9.500  -0.6051   0.01021   0.00599  -0.1054  0.8504  0.0073  -7.5597   0.0000   0.0628
  -9.400  -0.5939   0.01009   0.00586  -0.1057  0.8496  0.0073  -7.4294   0.0000   0.0591
  -9.300  -0.5826   0.00997   0.00574  -0.1059  0.8487  0.0073  -7.2999   0.0000   0.0553
  -9.200  -0.5714   0.00986   0.00562  -0.1061  0.8478  0.0074  -7.1714   0.0000   0.0514
  -9.100  -0.5601   0.00975   0.00550  -0.1063  0.8469  0.0074  -7.0438   0.0000   0.0473
  -9.000  -0.5488   0.00964   0.00538  -0.1065  0.8460  0.0074  -6.9171   0.0000   0.0431
  -8.900  -0.5376   0.00953   0.00526  -0.1067  0.8451  0.0075  -6.7913   0.0000   0.0386
  -8.800  -0.5263   0.00942   0.00515  -0.1069  0.8441  0.0075  -6.6665   0.0000   0.0340
  -8.700  -0.5150   0.00932   0.00503  -0.1071  0.8431  0.0075  -6.5425   0.0000   0.0292
  -8.600  -0.5037   0.00922   0.00492  -0.1073  0.8423  0.0076  -6.4189   0.0000   0.0241
  -8.500  -0.4923   0.00911   0.00481  -0.1076  0.8416  0.0076  -6.2960   0.0000   0.0187
  -8.400  -0.4808   0.00901   0.00470  -0.1078  0.8408  0.0076  -6.1739   0.0000   0.0130
  -8.300  -0.4694   0.00890   0.00460  -0.1080  0.8399  0.0076  -6.0527   0.0000   0.0070
  -8.200  -0.4579   0.00881   0.00449  -0.1082  0.8390  0.0077  -5.9325   0.0000   0.0008
  -8.100  -0.4465   0.00871   0.00439  -0.1085  0.8381  0.0077  -5.8131   0.0000  -0.0058
  -8.000  -0.4351   0.00862   0.00429  -0.1087  0.8372  0.0077  -5.6947   0.0000  -0.0127
  -7.900  -0.4236   0.00853   0.00419  -0.1089  0.8363  0.0077  -5.5773   0.0000  -0.0200
  -7.800  -0.4122   0.00844   0.00410  -0.1091  0.8353  0.0077  -5.4608   0.0000  -0.0277
  -7.700  -0.4008   0.00835   0.00400  -0.1093  0.8343  0.0078  -5.3452   0.0000  -0.0358
  -7.600  -0.3892   0.00826   0.00391  -0.1095  0.8336  0.0078  -5.2299   0.0000  -0.0446
  -7.500  -0.3776   0.00817   0.00382  -0.1097  0.8328  0.0078  -5.1154   0.0000  -0.0540
  -7.400  -0.3660   0.00809   0.00373  -0.1100  0.8319  0.0078  -5.0019   0.0000  -0.0639
  -7.300  -0.3545   0.00800   0.00365  -0.1102  0.8309  0.0078  -4.8895   0.0000  -0.0745
  -7.200  -0.3429   0.00792   0.00356  -0.1104  0.8300  0.0078  -4.7780   0.0000  -0.0857
  -7.100  -0.3313   0.00784   0.00348  -0.1106  0.8290  0.0079  -4.6676   0.0000  -0.0978
  -7.000  -0.3198   0.00777   0.00339  -0.1109  0.8280  0.0079  -4.5582   0.0000  -0.1107
  -6.900  -0.3082   0.00769   0.00331  -0.1111  0.8269  0.0079  -4.4498   0.0000  -0.1245
  -6.800  -0.2967   0.00762   0.00324  -0.1113  0.8259  0.0079  -4.3425   0.0000  -0.1394
  -6.700  -0.2850   0.00755   0.00316  -0.1115  0.8250  0.0079  -4.2356   0.0000  -0.1558
  -6.600  -0.2733   0.00748   0.00309  -0.1117  0.8241  0.0079  -4.1295   0.0000  -0.1736
  -6.500  -0.2617   0.00740   0.00301  -0.1120  0.8231  0.0079  -4.0245   0.0000  -0.1931
  -6.400  -0.2500   0.00732   0.00292  -0.1122  0.8221  0.0080  -3.9234   0.0000  -0.2143
  -6.300  -0.2384   0.00721   0.00279  -0.1124  0.8211  0.0081  -3.8288   0.0000  -0.2375
  -6.200  -0.2267   0.00711   0.00268  -0.1127  0.8200  0.0082  -3.7339   0.0000  -0.2632
  -6.100  -0.2151   0.00702   0.00258  -0.1129  0.8189  0.0083  -3.6392   0.0000  -0.2915
  -6.000  -0.2035   0.00694   0.00249  -0.1131  0.8178  0.0084  -3.5446   0.0000  -0.3231
  -5.900  -0.1918   0.00687   0.00241  -0.1133  0.8167  0.0086  -3.4502   0.0000  -0.3584
  -5.800  -0.1801   0.00680   0.00234  -0.1135  0.8158  0.0088  -3.3548   0.0000  -0.3991
  -5.700  -0.1683   0.00673   0.00227  -0.1138  0.8148  0.0090  -3.2589   0.0000  -0.4454
  -5.600  -0.1565   0.00667   0.00221  -0.1140  0.8137  0.0092  -3.1630   0.0000  -0.4986
  -5.500  -0.1448   0.00661   0.00216  -0.1142  0.8125  0.0094  -3.0677   0.0000  -0.5602
  -5.400  -0.1331   0.00655   0.00210  -0.1144  0.8113  0.0096  -2.9734   0.0000  -0.6326
  -5.300  -0.1214   0.00650   0.00205  -0.1146  0.8101  0.0098  -2.8800   0.0000  -0.7187
  -5.200  -0.1097   0.00646   0.00200  -0.1148  0.8089  0.0100  -2.7875   0.0000  -0.8228
  -5.100  -0.0981   0.00642   0.00196  -0.1150  0.8077  0.0101  -2.6961   0.0000  -0.9516
  -5.000  -0.0862   0.00637   0.00191  -0.1153  0.8068  0.0102  -2.6048   0.0000  -1.1180
  -4.900  -0.0744   0.00632   0.00187  -0.1155  0.8058  0.0103  -2.5142   0.0000  -1.3373
  -4.800  -0.0626   0.00627   0.00182  -0.1157  0.8046  0.0106  -2.4353   0.0000  -1.6386
  -4.700  -0.0508   0.00621   0.00176  -0.1159  0.8033  0.0113  -2.3628   0.0000  -2.0793
  -4.600  -0.0391   0.00616   0.00171  -0.1162  0.8020  0.0120  -2.2864   0.0000  -2.7829
  -4.500  -0.0274   0.00611   0.00167  -0.1164  0.8007  0.0125  -2.2099   0.0000  -4.0845
  -4.400  -0.0157   0.00608   0.00163  -0.1166  0.7993  0.0130  -2.1343   0.0000  -7.3120
  -4.300  -0.0040   0.00603   0.00159  -0.1168  0.7980  0.0143  -2.0608   0.0000  -29.6730
  -4.200   0.0079   0.00597   0.00154  -0.1170  0.7967  0.0157  -1.9862   0.0000  15.4011
  -4.100   0.0197   0.00593   0.00150  -0.1172  0.7953  0.0172  -1.9125   0.0000   6.3163
  -4.000   0.0314   0.00588   0.00147  -0.1174  0.7938  0.0190  -1.8391   0.0000   4.0500
  -3.900   0.0432   0.00583   0.00143  -0.1176  0.7923  0.0208  -1.7665   0.0000   3.0205
  -3.800   0.0549   0.00579   0.00139  -0.1178  0.7908  0.0228  -1.6947   0.0000   2.4325
  -3.700   0.0665   0.00575   0.00136  -0.1180  0.7893  0.0256  -1.6238   0.0000   2.0518
  -3.600   0.0784   0.00569   0.00132  -0.1183  0.7881  0.0289  -1.5531   0.0000   1.7815
  -3.500   0.0902   0.00564   0.00129  -0.1185  0.7867  0.0327  -1.4833   0.0000   1.5825
  -3.400   0.1020   0.00559   0.00125  -0.1187  0.7852  0.0368  -1.4144   0.0000   1.4299
  -3.300   0.1138   0.00554   0.00122  -0.1190  0.7836  0.0417  -1.3466   0.0000   1.3093
  -3.200   0.1255   0.00549   0.00118  -0.1192  0.7819  0.0482  -1.2799   0.0000   1.2116
  -3.100   0.1372   0.00544   0.00115  -0.1194  0.7802  0.0563  -1.2141   0.0000   1.1308
  -2.900   0.1609   0.00531   0.00109  -0.1199  0.7771  0.0751  -1.0846   0.0000   1.0035
  -2.800   0.1727   0.00524   0.00105  -0.1201  0.7753  0.0861  -1.0212   0.0000   0.9530
  -2.700   0.1844   0.00517   0.00102  -0.1204  0.7734  0.1000  -0.9590   0.0000   0.9092
  -2.600   0.1961   0.00510   0.00099  -0.1206  0.7714  0.1152  -0.8978   0.0000   0.8707
  -2.500   0.2079   0.00502   0.00096  -0.1209  0.7695  0.1329  -0.8374   0.0000   0.8365
  -2.400   0.2198   0.00492   0.00092  -0.1212  0.7676  0.1568  -0.7778   0.0000   0.8059
  -2.300   0.2317   0.00479   0.00088  -0.1215  0.7654  0.1890  -0.7193   0.0000   0.7786
  -2.000   0.2672   0.00436   0.00075  -0.1225  0.7589  0.3028  -0.5494   0.0000   0.7115
  -1.900   0.2791   0.00419   0.00070  -0.1229  0.7566  0.3459  -0.5491   0.0000   0.6929
  -1.800   0.2909   0.00402   0.00065  -0.1233  0.7541  0.3932  -0.5542   0.0000   0.6760
  -1.700   0.3027   0.00383   0.00060  -0.1236  0.7514  0.4466  -0.5592   0.0000   0.6605
  -1.600   0.3145   0.00366   0.00056  -0.1240  0.7490  0.4941  -0.5643   0.0000   0.6460
  -1.500   0.3263   0.00355   0.00053  -0.1243  0.7462  0.5266  -0.5698   0.0000   0.6323
  -1.400   0.3379   0.00348   0.00051  -0.1245  0.7431  0.5517  -0.5753   0.0000   0.6196
  -1.300   0.3495   0.00343   0.00050  -0.1247  0.7402  0.5706  -0.5809   0.0000   0.6077
  -1.200   0.3613   0.00339   0.00049  -0.1249  0.7372  0.5858  -0.5865   0.0000   0.5965
  -1.100   0.3729   0.00336   0.00048  -0.1251  0.7338  0.6003  -0.5920   0.0000   0.5860
  -1.000   0.3844   0.00336   0.00049  -0.1252  0.7306  0.6096  -0.5975   0.0000   0.5761
  -0.900   0.3962   0.00335   0.00049  -0.1254  0.7277  0.6158  -0.6034   0.0000   0.5667
  -0.800   0.4078   0.00335   0.00049  -0.1255  0.7240  0.6207  -0.6094   0.0000   0.5579
  -0.700   0.4193   0.00336   0.00049  -0.1256  0.7202  0.6265  -0.6153   0.0000   0.5496
  -0.600   0.4309   0.00336   0.00050  -0.1258  0.7162  0.6323  -0.6213   0.0000   0.5417
  -0.500   0.4424   0.00338   0.00051  -0.1259  0.7115  0.6396  -0.6272   0.0000   0.5342
  -0.400   0.4539   0.00338   0.00052  -0.1260  0.7075  0.6462  -0.6331   0.0000   0.5271
  -0.300   0.4654   0.00340   0.00053  -0.1262  0.7030  0.6516  -0.6390   0.0000   0.5204
  -0.200   0.4769   0.00342   0.00054  -0.1263  0.6990  0.6555  -0.6450   0.0000   0.5140
  -0.100   0.4885   0.00343   0.00055  -0.1264  0.6951  0.6585  -0.6509   0.0000   0.5078
   0.000   0.5000   0.00346   0.00056  -0.1265  0.6914  0.6610  -0.6574   0.0000   0.5020
   0.100   0.5116   0.00348   0.00057  -0.1267  0.6883  0.6631  -0.6641   0.0000   0.4964
   0.200   0.5233   0.00349   0.00058  -0.1268  0.6849  0.6651  -0.6712   0.0000   0.4910
   0.300   0.5347   0.00352   0.00060  -0.1269  0.6811  0.6673  -0.6784   0.0000   0.4859
   0.400   0.5463   0.00354   0.00061  -0.1270  0.6774  0.6691  -0.6859   0.0000   0.4810
   0.500   0.5578   0.00356   0.00063  -0.1272  0.6728  0.6706  -0.6934   0.0000   0.4763
   0.600   0.5691   0.00360   0.00064  -0.1273  0.6677  0.6719  -0.7010   0.0000   0.4718
   0.700   0.5805   0.00364   0.00066  -0.1273  0.6615  0.6730  -0.7090   0.0000   0.4675
   0.800   0.5917   0.00368   0.00068  -0.1274  0.6547  0.6739  -0.7174   0.0000   0.4633
   0.900   0.6028   0.00374   0.00070  -0.1274  0.6465  0.6747  -0.7262   0.0000   0.4593
   1.100   0.6247   0.00386   0.00075  -0.1275  0.6270  0.6765  -0.7439   0.0000   0.4518
   1.200   0.6355   0.00393   0.00078  -0.1275  0.6156  0.6776  -0.7531   0.0000   0.4482
   1.300   0.6461   0.00401   0.00082  -0.1274  0.6035  0.6787  -0.7628   0.0000   0.4447
   1.400   0.6568   0.00409   0.00085  -0.1274  0.5908  0.6797  -0.7726   0.0000   0.4414
   1.500   0.6674   0.00418   0.00089  -0.1274  0.5773  0.6806  -0.7823   0.0000   0.4381
   1.600   0.6781   0.00427   0.00093  -0.1273  0.5650  0.6815  -0.7933   0.0000   0.4350
   1.700   0.6888   0.00434   0.00097  -0.1273  0.5541  0.6824  -0.8044   0.0000   0.4319
   1.800   0.6996   0.00442   0.00100  -0.1273  0.5433  0.6831  -0.8155   0.0000   0.4289
   1.900   0.7102   0.00451   0.00104  -0.1273  0.5319  0.6838  -0.8266   0.0000   0.4261
   2.000   0.7208   0.00460   0.00109  -0.1272  0.5190  0.6845  -0.8376   0.0000   0.4233
   2.100   0.7312   0.00470   0.00113  -0.1271  0.5054  0.6850  -0.8492   0.0000   0.4206
   2.200   0.7414   0.00482   0.00118  -0.1270  0.4904  0.6856  -0.8616   0.0000   0.4179
   2.300   0.7517   0.00493   0.00124  -0.1269  0.4753  0.6860  -0.8741   0.0000   0.4154
   2.400   0.7620   0.00504   0.00129  -0.1268  0.4604  0.6864  -0.8927   0.0000   0.4129
   2.500   0.7721   0.00516   0.00134  -0.1267  0.4454  0.6874  -0.9114   0.0000   0.4104
   2.600   0.7823   0.00528   0.00140  -0.1266  0.4295  0.6883  -0.9325   0.0000   0.4081
   2.700   0.7920   0.00542   0.00147  -0.1264  0.4104  0.6892  -0.9548   0.0000   0.4058
   2.800   0.8019   0.00556   0.00154  -0.1263  0.3926  0.6899  -0.9798   0.0000   0.4035
   2.900   0.8118   0.00570   0.00161  -0.1261  0.3760  0.6906  -1.0049   0.0000   0.4013
   3.000   0.8218   0.00583   0.00168  -0.1260  0.3593  0.6913  -1.0320   0.0000   0.3991
   3.100   0.8315   0.00598   0.00176  -0.1258  0.3414  0.6920  -1.0637   0.0000   0.3970
   3.200   0.8410   0.00615   0.00184  -0.1256  0.3209  0.6926  -1.0952   0.0000   0.3950
   3.300   0.8504   0.00633   0.00193  -0.1253  0.3011  0.6932  -1.1270   0.0000   0.3929
   3.400   0.8603   0.00646   0.00200  -0.1252  0.2856  0.6938  -1.1630   0.0000   0.3910
   3.500   0.8705   0.00658   0.00207  -0.1251  0.2740  0.6943  -1.2041   0.0000   0.3890
   3.600   0.8807   0.00669   0.00213  -0.1250  0.2632  0.6948  -1.2456   0.0000   0.3872
   3.700   0.8908   0.00681   0.00220  -0.1249  0.2513  0.6953  -1.2872   0.0000   0.3853
   3.800   0.9007   0.00694   0.00227  -0.1247  0.2371  0.6958  -1.3288   0.0000   0.3835
   3.900   0.9106   0.00708   0.00235  -0.1246  0.2239  0.6963  -1.3706   0.0000   0.3817
   4.000   0.9207   0.00720   0.00242  -0.1245  0.2135  0.6967  -1.4133   0.0000   0.3800
   4.100   0.9307   0.00732   0.00249  -0.1243  0.2020  0.6970  -1.4563   0.0000   0.3783
   4.200   0.9404   0.00747   0.00258  -0.1241  0.1878  0.6973  -1.5011   0.0000   0.3766
   4.300   0.9500   0.00763   0.00267  -0.1239  0.1735  0.6976  -1.5552   0.0000   0.3750
   4.400   0.9594   0.00779   0.00276  -0.1237  0.1586  0.6983  -1.6094   0.0000   0.3734
   4.500   0.9691   0.00793   0.00286  -0.1235  0.1462  0.6991  -1.6650   0.0000   0.3718
   4.600   0.9787   0.00808   0.00295  -0.1233  0.1345  0.6998  -1.7222   0.0000   0.3702
   4.700   0.9885   0.00821   0.00304  -0.1232  0.1235  0.7004  -1.7841   0.0000   0.3687
   4.800   0.9981   0.00836   0.00313  -0.1230  0.1132  0.7009  -1.8465   0.0000   0.3672
   4.900   1.0080   0.00848   0.00322  -0.1228  0.1046  0.7015  -1.9103   0.0000   0.3657
   5.000   1.0179   0.00860   0.00330  -0.1227  0.0970  0.7019  -1.9750   0.0000   0.3643
   5.100   1.0278   0.00873   0.00339  -0.1225  0.0891  0.7024  -2.0401   0.0000   0.3629
   5.200   1.0376   0.00886   0.00348  -0.1223  0.0815  0.7029  -2.1056   0.0000   0.3615
   5.300   1.0474   0.00898   0.00357  -0.1222  0.0746  0.7034  -2.1719   0.0000   0.3601
   5.400   1.0573   0.00909   0.00365  -0.1220  0.0693  0.7038  -2.2395   0.0000   0.3587
   5.500   1.0674   0.00920   0.00373  -0.1219  0.0650  0.7043  -2.3082   0.0000   0.3574
   5.600   1.0773   0.00931   0.00382  -0.1218  0.0603  0.7047  -2.3770   0.0000   0.3561
   5.700   1.0872   0.00942   0.00391  -0.1216  0.0559  0.7052  -2.4464   0.0000   0.3548
   5.800   1.0973   0.00952   0.00399  -0.1215  0.0523  0.7057  -2.5170   0.0000   0.3536
   5.900   1.1073   0.00963   0.00407  -0.1214  0.0490  0.7061  -2.5883   0.0000   0.3523
   6.000   1.1171   0.00974   0.00416  -0.1212  0.0454  0.7065  -2.6596   0.0000   0.3511
   6.100   1.1271   0.00984   0.00425  -0.1210  0.0424  0.7069  -2.7319   0.0000   0.3499
   6.200   1.1370   0.00994   0.00433  -0.1209  0.0398  0.7073  -2.8112   0.0000   0.3487
   6.400   1.1567   0.01016   0.00451  -0.1206  0.0345  0.7079  -2.9714   0.0000   0.3464
   6.500   1.1665   0.01027   0.00461  -0.1204  0.0319  0.7081  -3.0521   0.0000   0.3453
   6.600   1.1762   0.01038   0.00470  -0.1202  0.0299  0.7084  -3.1340   0.0000   0.3441
   6.700   1.1860   0.01048   0.00479  -0.1201  0.0280  0.7086  -3.2165   0.0000   0.3430
   6.800   1.1958   0.01059   0.00488  -0.1199  0.0264  0.7088  -3.3001   0.0000   0.3419
   6.900   1.2054   0.01070   0.00498  -0.1197  0.0246  0.7091  -3.3836   0.0000   0.3408
   7.000   1.2153   0.01079   0.00507  -0.1196  0.0234  0.7097  -3.4690   0.0000   0.3398
   7.100   1.2249   0.01090   0.00517  -0.1194  0.0219  0.7104  -3.5538   0.0000   0.3387
   7.200   1.2346   0.01100   0.00526  -0.1192  0.0208  0.7110  -3.6402   0.0000   0.3377
   7.300   1.2443   0.01110   0.00535  -0.1190  0.0197  0.7115  -3.7271   0.0000   0.3367
   7.400   1.2536   0.01122   0.00546  -0.1188  0.0182  0.7120  -3.8134   0.0000   0.3356
   7.500   1.2633   0.01131   0.00556  -0.1186  0.0175  0.7124  -3.9016   0.0000   0.3346
   7.600   1.2728   0.01142   0.00566  -0.1184  0.0167  0.7129  -3.9902   0.0000   0.3336
   7.700   1.2821   0.01154   0.00577  -0.1181  0.0158  0.7133  -4.0785   0.0000   0.3326
   7.800   1.2914   0.01165   0.00588  -0.1179  0.0150  0.7137  -4.1676   0.0000   0.3316
   7.900   1.3010   0.01174   0.00597  -0.1177  0.0146  0.7141  -4.2585   0.0000   0.3307
   8.000   1.3103   0.01185   0.00608  -0.1174  0.0141  0.7145  -4.3494   0.0000   0.3297
   8.100   1.3194   0.01197   0.00619  -0.1171  0.0135  0.7148  -4.4400   0.0000   0.3288
   8.200   1.3284   0.01209   0.00631  -0.1168  0.0128  0.7152  -4.5303   0.0000   0.3278
   8.300   1.3375   0.01220   0.00642  -0.1166  0.0122  0.7156  -4.6216   0.0000   0.3268
   8.400   1.3464   0.01230   0.00652  -0.1162  0.0120  0.7159  -4.7134   0.0000   0.3259
   8.500   1.3548   0.01241   0.00662  -0.1158  0.0116  0.7163  -4.8034   0.0000   0.3249
   8.600   1.3627   0.01252   0.00673  -0.1153  0.0111  0.7166  -4.8920   0.0000   0.3239
   8.700   1.3708   0.01265   0.00686  -0.1148  0.0105  0.7170  -4.9814   0.0000   0.3229
   8.800   1.3789   0.01278   0.00699  -0.1143  0.0098  0.7173  -5.0710   0.0000   0.3219
   8.900   1.3875   0.01290   0.00711  -0.1139  0.0096  0.7177  -5.1672   0.0000   0.3210
   9.000   1.3959   0.01302   0.00723  -0.1135  0.0094  0.7180  -5.2680   0.0000   0.3201
   9.100   1.4043   0.01315   0.00735  -0.1131  0.0092  0.7184  -5.3688   0.0000   0.3191
   9.200   1.4124   0.01328   0.00749  -0.1127  0.0089  0.7187  -5.4697   0.0000   0.3182
   9.300   1.4205   0.01342   0.00763  -0.1122  0.0087  0.7190  -5.5704   0.0000   0.3173
   9.400   1.4283   0.01357   0.00777  -0.1117  0.0083  0.7192  -5.6707   0.0000   0.3164
   9.500   1.4361   0.01373   0.00793  -0.1112  0.0080  0.7195  -5.7701   0.0000   0.3154
   9.600   1.4437   0.01389   0.00810  -0.1107  0.0076  0.7197  -5.8685   0.0000   0.3145
   9.700   1.4518   0.01402   0.00823  -0.1103  0.0076  0.7199  -5.9737   0.0000   0.3136
   9.800   1.4598   0.01415   0.00836  -0.1098  0.0076  0.7201  -6.0789   0.0000   0.3128
   9.900   1.4678   0.01429   0.00850  -0.1094  0.0075  0.7202  -6.1842   0.0000   0.3119
  10.000   1.4757   0.01443   0.00865  -0.1089  0.0074  0.7207  -6.2899   0.0000   0.3110
  10.100   1.4836   0.01457   0.00880  -0.1085  0.0074  0.7212  -6.3959   0.0000   0.3102
  10.200   1.4913   0.01471   0.00895  -0.1080  0.0073  0.7218  -6.5020   0.0000   0.3093
  10.300   1.4990   0.01487   0.00911  -0.1075  0.0072  0.7223  -6.6083   0.0000   0.3085
  10.400   1.5066   0.01502   0.00927  -0.1070  0.0071  0.7227  -6.7148   0.0000   0.3077
  10.500   1.5141   0.01519   0.00944  -0.1065  0.0070  0.7232  -6.8215   0.0000   0.3068
  10.600   1.5215   0.01536   0.00961  -0.1060  0.0069  0.7236  -6.9283   0.0000   0.3060
  10.700   1.5288   0.01553   0.00979  -0.1055  0.0068  0.7240  -7.0352   0.0000   0.3051
  10.800   1.5360   0.01571   0.00998  -0.1049  0.0066  0.7243  -7.1423   0.0000   0.3043
  10.900   1.5432   0.01590   0.01017  -0.1044  0.0065  0.7247  -7.2493   0.0000   0.3035
  11.000   1.5502   0.01609   0.01037  -0.1038  0.0064  0.7251  -7.3631   0.0000   0.3027
  11.100   1.5570   0.01629   0.01058  -0.1033  0.0062  0.7254  -7.4764   0.0000   0.3018
  11.200   1.5638   0.01651   0.01080  -0.1027  0.0061  0.7258  -7.5890   0.0000   0.3010
  11.300   1.5704   0.01673   0.01104  -0.1020  0.0059  0.7261  -7.7008   0.0000   0.3002
  11.400   1.5767   0.01697   0.01129  -0.1014  0.0058  0.7265  -7.8114   0.0000   0.2993
  11.500   1.5834   0.01718   0.01152  -0.1008  0.0057  0.7268  -7.9258   0.0000   0.2985
  11.600   1.5905   0.01737   0.01171  -0.1003  0.0057  0.7271  -8.0467   0.0000   0.2977
  11.700   1.5977   0.01756   0.01190  -0.0998  0.0057  0.7274  -8.1681   0.0000   0.2970
  11.800   1.6047   0.01775   0.01210  -0.0993  0.0057  0.7277  -8.2895   0.0000   0.2962
  11.900   1.6117   0.01795   0.01231  -0.0988  0.0056  0.7280  -8.4109   0.0000   0.2955
  12.000   1.6186   0.01816   0.01252  -0.0983  0.0056  0.7283  -8.5328   0.0000   0.2947
  12.100   1.6254   0.01837   0.01274  -0.0977  0.0056  0.7286  -8.6544   0.0000   0.2940
  12.200   1.6321   0.01858   0.01296  -0.0972  0.0056  0.7289  -8.7762   0.0000   0.2932
  12.300   1.6388   0.01880   0.01319  -0.0967  0.0055  0.7292  -8.8985   0.0000   0.2925
  12.400   1.6454   0.01902   0.01342  -0.0961  0.0055  0.7294  -9.0208   0.0000   0.2917
  12.500   1.6520   0.01925   0.01366  -0.0956  0.0055  0.7297  -9.1435   0.0000   0.2910
  12.600   1.6585   0.01949   0.01390  -0.0950  0.0054  0.7299  -9.2667   0.0000   0.2902
  12.700   1.6649   0.01973   0.01415  -0.0945  0.0054  0.7302  -9.3898   0.0000   0.2895
  12.800   1.6712   0.01997   0.01441  -0.0939  0.0053  0.7304  -9.5130   0.0000   0.2888
  12.900   1.6775   0.02022   0.01466  -0.0933  0.0053  0.7306  -9.6364   0.0000   0.2880
  13.000   1.6836   0.02048   0.01493  -0.0927  0.0053  0.7308  -9.7594   0.0000   0.2873
  13.100   1.6897   0.02074   0.01520  -0.0922  0.0052  0.7310  -9.8826   0.0000   0.2866
  13.200   1.6957   0.02101   0.01548  -0.0916  0.0052  0.7312  -10.0063   0.0000   0.2859
  13.300   1.7016   0.02129   0.01576  -0.0910  0.0051  0.7314  -10.1295   0.0000   0.2852
  13.400   1.7074   0.02157   0.01605  -0.0904  0.0051  0.7315  -10.2529   0.0000   0.2844
  13.500   1.7132   0.02186   0.01635  -0.0898  0.0050  0.7318  -10.3769   0.0000   0.2837
  13.600   1.7189   0.02215   0.01665  -0.0892  0.0050  0.7324  -10.5006   0.0000   0.2830
  13.700   1.7245   0.02245   0.01697  -0.0886  0.0049  0.7329  -10.6239   0.0000   0.2823
  13.800   1.7300   0.02276   0.01729  -0.0880  0.0049  0.7334  -10.7471   0.0000   0.2816
  13.900   1.7353   0.02308   0.01762  -0.0874  0.0048  0.7339  -10.8691   0.0000   0.2809
  14.000   1.7404   0.02341   0.01796  -0.0867  0.0048  0.7344  -10.9906   0.0000   0.2802
  14.100   1.7456   0.02375   0.01831  -0.0861  0.0047  0.7348  -11.1124   0.0000   0.2795
  14.200   1.7505   0.02410   0.01868  -0.0854  0.0046  0.7352  -11.2327   0.0000   0.2788
  14.300   1.7552   0.02447   0.01906  -0.0848  0.0046  0.7356  -11.3519   0.0000   0.2781
  14.400   1.7599   0.02484   0.01945  -0.0841  0.0045  0.7360  -11.4707   0.0000   0.2774
  14.500   1.7643   0.02524   0.01987  -0.0834  0.0044  0.7363  -11.5871   0.0000   0.2767
  14.600   1.7685   0.02565   0.02030  -0.0827  0.0044  0.7366  -11.7022   0.0000   0.2760
  14.700   1.7726   0.02608   0.02075  -0.0820  0.0043  0.7369  -11.8159   0.0000   0.2753
  14.800   1.7762   0.02654   0.02122  -0.0812  0.0042  0.7372  -11.9260   0.0000   0.2745
  14.900   1.7797   0.02701   0.02172  -0.0805  0.0042  0.7375  -12.0344   0.0000   0.2738
  15.000   1.7827   0.02751   0.02224  -0.0797  0.0041  0.7378  -12.1395   0.0000   0.2731
  15.100   1.7856   0.02803   0.02279  -0.0789  0.0040  0.7381  -12.2431   0.0000   0.2724
  15.200   1.7902   0.02842   0.02320  -0.0783  0.0040  0.7383  -12.3674   0.0000   0.2717
  15.300   1.7946   0.02884   0.02363  -0.0777  0.0040  0.7386  -12.4904   0.0000   0.2711
  15.400   1.7990   0.02925   0.02406  -0.0771  0.0040  0.7389  -12.6138   0.0000   0.2704
  15.500   1.8034   0.02967   0.02449  -0.0765  0.0040  0.7392  -12.7378   0.0000   0.2698
  15.600   1.8076   0.03011   0.02494  -0.0759  0.0040  0.7394  -12.8601   0.0000   0.2692
  15.700   1.8117   0.03055   0.02540  -0.0753  0.0040  0.7397  -12.9828   0.0000   0.2685
  15.800   1.8158   0.03100   0.02586  -0.0747  0.0040  0.7399  -13.1060   0.0000   0.2679
  15.900   1.8197   0.03147   0.02635  -0.0741  0.0040  0.7402  -13.2269   0.0000   0.2673
  16.000   1.8235   0.03194   0.02683  -0.0735  0.0040  0.7405  -13.3481   0.0000   0.2666
  16.100   1.8272   0.03242   0.02733  -0.0730  0.0040  0.7407  -13.4692   0.0000   0.2660
  16.200   1.8308   0.03292   0.02784  -0.0724  0.0040  0.7410  -13.5890   0.0000   0.2654
  16.300   1.8345   0.03342   0.02836  -0.0718  0.0040  0.7413  -13.7103   0.0000   0.2648
  16.400   1.8380   0.03394   0.02890  -0.0712  0.0040  0.7415  -13.8304   0.0000   0.2642
  16.500   1.8414   0.03447   0.02945  -0.0707  0.0039  0.7417  -13.9499   0.0000   0.2636
  16.600   1.8449   0.03501   0.03000  -0.0701  0.0039  0.7419  -14.0708   0.0000   0.2630
  16.700   1.8481   0.03557   0.03058  -0.0696  0.0039  0.7421  -14.1895   0.0000   0.2624
  16.800   1.8513   0.03614   0.03117  -0.0690  0.0039  0.7423  -14.3085   0.0000   0.2619
  16.900   1.8546   0.03671   0.03176  -0.0685  0.0039  0.7425  -14.4280   0.0000   0.2613
  17.000   1.8575   0.03732   0.03238  -0.0680  0.0039  0.7426  -14.5450   0.0000   0.2607
  17.100   1.8605   0.03792   0.03300  -0.0675  0.0039  0.7428  -14.6633   0.0000   0.2602
  17.200   1.8634   0.03855   0.03365  -0.0670  0.0039  0.7429  -14.7802   0.0000   0.2596
  17.300   1.8660   0.03919   0.03431  -0.0665  0.0038  0.7430  -14.8954   0.0000   0.2590
  17.400   1.8687   0.03983   0.03497  -0.0660  0.0038  0.7434  -15.0117   0.0000   0.2585
  17.500   1.8711   0.04051   0.03567  -0.0655  0.0038  0.7439  -15.1248   0.0000   0.2580
  17.600   1.8735   0.04119   0.03636  -0.0650  0.0038  0.7443  -15.2393   0.0000   0.2574
  17.700   1.8758   0.04189   0.03709  -0.0646  0.0038  0.7448  -15.3525   0.0000   0.2569
  17.800   1.8780   0.04262   0.03784  -0.0641  0.0038  0.7452  -15.4645   0.0000   0.2564
  17.900   1.8803   0.04334   0.03858  -0.0637  0.0038  0.7456  -15.5777   0.0000   0.2559
  18.000   1.8821   0.04411   0.03937  -0.0632  0.0037  0.7460  -15.6875   0.0000   0.2554
  18.100   1.8842   0.04487   0.04015  -0.0628  0.0037  0.7464  -15.7994   0.0000   0.2549
  18.200   1.8859   0.04567   0.04098  -0.0624  0.0037  0.7467  -15.9081   0.0000   0.2544
  18.300   1.8877   0.04648   0.04181  -0.0620  0.0037  0.7471  -16.0172   0.0000   0.2539
  18.400   1.8893   0.04731   0.04266  -0.0617  0.0037  0.7474  -16.1252   0.0000   0.2534
  18.500   1.8907   0.04816   0.04354  -0.0613  0.0037  0.7477  -16.2314   0.0000   0.2530
  18.600   1.8922   0.04902   0.04442  -0.0610  0.0036  0.7480  -16.3384   0.0000   0.2525
  18.700   1.8933   0.04993   0.04535  -0.0606  0.0036  0.7484  -16.4416   0.0000   0.2521
  18.800   1.8945   0.05082   0.04626  -0.0603  0.0036  0.7487  -16.5471   0.0000   0.2516
  18.900   1.8953   0.05177   0.04724  -0.0600  0.0036  0.7490  -16.6472   0.0000   0.2512
  19.000   1.8962   0.05271   0.04820  -0.0597  0.0036  0.7493  -16.7493   0.0000   0.2508
  19.100   1.8966   0.05371   0.04922  -0.0594  0.0036  0.7496  -16.8461   0.0000   0.2503
  19.200   1.8973   0.05469   0.05023  -0.0591  0.0035  0.7499  -16.9454   0.0000   0.2499
  19.300   1.8974   0.05574   0.05131  -0.0589  0.0035  0.7502  -17.0397   0.0000   0.2495
  19.400   1.8978   0.05678   0.05237  -0.0586  0.0035  0.7504  -17.1362   0.0000   0.2491
  19.500   1.8976   0.05789   0.05351  -0.0584  0.0035  0.7507  -17.2277   0.0000   0.2488
  19.600   1.8977   0.05899   0.05462  -0.0583  0.0035  0.7510  -17.3213   0.0000   0.2484
  19.700   1.8973   0.06016   0.05582  -0.0581  0.0034  0.7512  -17.4096   0.0000   0.2481
  19.800   1.8971   0.06131   0.05699  -0.0579  0.0034  0.7515  -17.5002   0.0000   0.2477
  19.900   1.8963   0.06254   0.05825  -0.0578  0.0034  0.7517  -17.5845   0.0000   0.2474
  20.000   1.8958   0.06375   0.05949  -0.0577  0.0034  0.7519  -17.6712   0.0000   0.2471


