xflr5 v6.32

 Calculated polar for: foil1 modified

 1 1 Reynolds number fixed          Mach number fixed         

 xtrf =   1.000 (top)        1.000 (bottom)
 Mach =   0.000     Re =     0.130 e 6     Ncrit =   9.000

  alpha     CL        CD       CDp       Cm    Top Xtr Bot Xtr   Cpmin    Chinge    XCp    
 ------- -------- --------- --------- -------- ------- ------- -------- --------- ---------
 -14.000  -0.3945   0.15420   0.14938  -0.0468  1.0000  0.0625  -1.5458   0.0000   0.1089
 -13.900  -0.3994   0.15308   0.14828  -0.0482  1.0000  0.0630  -1.6014   0.0000   0.1073
 -13.800  -0.4062   0.15188   0.14712  -0.0499  1.0000  0.0632  -1.6727   0.0000   0.1056
 -13.700  -0.4029   0.15036   0.14560  -0.0497  1.0000  0.0635  -1.6540   0.0000   0.1051
 -13.600  -0.3950   0.14897   0.14421  -0.0487  1.0000  0.0639  -1.5910   0.0000   0.1050
 -13.500  -0.3906   0.14782   0.14306  -0.0483  1.0000  0.0644  -1.5562   0.0000   0.1047
 -13.400  -0.3881   0.14675   0.14199  -0.0481  1.0000  0.0650  -1.5360   0.0000   0.1044
 -13.300  -0.3866   0.14570   0.14095  -0.0480  1.0000  0.0656  -1.5262   0.0000   0.1043
 -13.200  -0.3861   0.14465   0.13992  -0.0479  1.0000  0.0663  -1.5262   0.0000   0.1044
 -13.100  -0.3865   0.14360   0.13888  -0.0480  1.0000  0.0671  -1.5324   0.0000   0.1046
 -13.000  -0.3881   0.14254   0.13784  -0.0481  1.0000  0.0679  -1.5472   0.0000   0.1051
 -12.900  -0.3919   0.14145   0.13678  -0.0485  1.0000  0.0687  -1.5799   0.0000   0.1056
 -12.800  -0.3997   0.14035   0.13571  -0.0494  1.0000  0.0692  -1.6406   0.0000   0.1064
 -12.700  -0.4097   0.13921   0.13461  -0.0504  1.0000  0.0695  -1.7148   0.0000   0.1076
 -12.200  -0.3993   0.13444   0.12988  -0.0462  1.0000  0.0718  -1.6049   0.0000   0.1153
 -12.100  -0.4004   0.13358   0.12903  -0.0457  1.0000  0.0725  -1.6038   0.0000   0.1170
 -12.000  -0.4024   0.13268   0.12815  -0.0453  1.0000  0.0732  -1.6092   0.0000   0.1189
 -11.900  -0.4054   0.13172   0.12721  -0.0451  1.0000  0.0740  -1.6228   0.0000   0.1207
 -11.800  -0.4106   0.13067   0.12618  -0.0451  1.0000  0.0749  -1.6524   0.0000   0.1224
 -11.700  -0.4203   0.12946   0.12501  -0.0457  1.0000  0.0756  -1.7140   0.0000   0.1240
 -11.600  -0.4329   0.12811   0.12370  -0.0467  1.0000  0.0759  -1.7950   0.0000   0.1255
 -11.400  -0.4307   0.12592   0.12154  -0.0451  1.0000  0.0766  -1.7637   0.0000   0.1289
 -11.300  -0.4265   0.12516   0.12078  -0.0439  1.0000  0.0771  -1.7236   0.0000   0.1308
 -11.200  -0.4252   0.12438   0.12001  -0.0430  1.0000  0.0777  -1.7025   0.0000   0.1326
 -11.100  -0.4255   0.12354   0.11917  -0.0424  1.0000  0.0784  -1.6929   0.0000   0.1344
 -11.000  -0.4269   0.12262   0.11826  -0.0419  1.0000  0.0792  -1.6921   0.0000   0.1360
 -10.900  -0.4296   0.12161   0.11728  -0.0416  1.0000  0.0800  -1.6999   0.0000   0.1376
 -10.800  -0.4342   0.12048   0.11616  -0.0415  1.0000  0.0810  -1.7205   0.0000   0.1391
 -10.700  -0.4432   0.11909   0.11481  -0.0421  1.0000  0.0820  -1.7725   0.0000   0.1402
 -10.600  -0.4583   0.11735   0.11312  -0.0435  1.0000  0.0825  -1.8641   0.0000   0.1409
 -10.500  -0.4745   0.11546   0.11129  -0.0449  1.0000  0.0828  -1.9608   0.0000   0.1416
  -9.800  -0.3676   0.10208   0.09852  -0.0305  1.0000  0.0961  -1.3841   0.0000   0.1586
  -9.700  -0.3813   0.10012   0.09659  -0.0320  1.0000  0.0967  -1.4582   0.0000   0.1580
  -9.600  -0.3959   0.09798   0.09447  -0.0335  1.0000  0.0970  -1.5370   0.0000   0.1574
  -9.500  -0.5187   0.10265   0.09869  -0.0438  1.0000  0.0897  -2.0993   0.0000   0.1542
  -9.400  -0.5362   0.10027   0.09635  -0.0454  1.0000  0.0898  -2.1844   0.0000   0.1544
  -9.300  -0.5523   0.09837   0.09446  -0.0462  1.0000  0.0898  -2.2511   0.0000   0.1558
  -7.400  -0.6512   0.07556   0.07172  -0.0375  1.0000  0.1007  -2.3575   0.0000   0.1851
  -5.800  -0.5172   0.04074   0.03380  -0.0618  0.9786  0.0708  -2.6896   0.0000   0.1228
  -5.700  -0.5112   0.04182   0.03523  -0.0624  0.9765  0.0855  -2.5068   0.0000   0.1204
  -5.600  -0.4859   0.03644   0.02864  -0.0628  0.9766  0.0565  -2.8646   0.0000   0.1128
  -5.500  -0.4722   0.03543   0.02756  -0.0635  0.9754  0.0557  -2.8381   0.0000   0.1074
  -5.400  -0.4568   0.03440   0.02635  -0.0644  0.9744  0.0547  -2.8219   0.0000   0.1008
  -5.300  -0.4447   0.03346   0.02523  -0.0647  0.9730  0.0539  -2.8164   0.0000   0.0963
  -5.200  -0.4308   0.03260   0.02418  -0.0652  0.9718  0.0532  -2.8064   0.0000   0.0904
  -5.100  -0.4158   0.03184   0.02325  -0.0659  0.9707  0.0528  -2.7867   0.0000   0.0832
  -5.000  -0.4028   0.03123   0.02252  -0.0662  0.9694  0.0528  -2.7580   0.0000   0.0771
  -4.900  -0.3908   0.03074   0.02199  -0.0665  0.9679  0.0533  -2.7149   0.0000   0.0712
  -4.800  -0.3769   0.03031   0.02152  -0.0672  0.9666  0.0542  -2.6637   0.0000   0.0630
  -4.700  -0.3625   0.02991   0.02104  -0.0679  0.9654  0.0554  -2.6172   0.0000   0.0539
  -4.600  -0.3515   0.02953   0.02055  -0.0679  0.9637  0.0563  -2.5824   0.0000   0.0479
  -4.500  -0.3378   0.02917   0.02006  -0.0683  0.9623  0.0572  -2.5465   0.0000   0.0387
  -4.400  -0.3239   0.02866   0.01960  -0.0689  0.9613  0.0580  -2.4961   0.0000   0.0280
  -4.300  -0.3129   0.02828   0.01926  -0.0690  0.9597  0.0589  -2.4494   0.0000   0.0201
  -4.200  -0.3014   0.02795   0.01895  -0.0691  0.9582  0.0599  -2.4029   0.0000   0.0112
  -4.100  -0.2878   0.02763   0.01863  -0.0696  0.9569  0.0612  -2.3552   0.0000  -0.0016
  -4.000  -0.2727   0.02734   0.01829  -0.0704  0.9559  0.0629  -2.3091   0.0000  -0.0181
  -3.900  -0.2634   0.02699   0.01801  -0.0702  0.9540  0.0644  -2.2658   0.0000  -0.0267
  -3.800  -0.2508   0.02672   0.01778  -0.0707  0.9525  0.0670  -2.2102   0.0000  -0.0425
  -3.700  -0.2359   0.02644   0.01753  -0.0717  0.9513  0.0708  -2.1590   0.0000  -0.0646
  -3.600  -0.2216   0.02620   0.01731  -0.0725  0.9499  0.0754  -2.1168   0.0000  -0.0883
  -3.500  -0.2101   0.02587   0.01707  -0.0730  0.9480  0.0798  -2.0790   0.0000  -0.1089
  -3.400  -0.1948   0.02553   0.01679  -0.0742  0.9466  0.0867  -2.0400   0.0000  -0.1429
  -3.300  -0.1774   0.02515   0.01650  -0.0759  0.9456  0.0994  -1.9963   0.0000  -0.1903
  -3.200  -0.1568   0.02441   0.01605  -0.0784  0.9449  0.1359  -1.9603   0.0000  -0.2639
  -3.000  -0.1446   0.02374   0.01803  -0.0756  0.9415  0.6580  -1.9048   0.0000  -0.2871
  -2.900  -0.1359   0.02456   0.01880  -0.0742  0.9395  0.6801  -1.8485   0.0000  -0.3105
  -2.800  -0.1322   0.02515   0.01935  -0.0721  0.9366  0.6919  -1.8052   0.0000  -0.3102
  -2.700  -0.1257   0.02579   0.01996  -0.0704  0.9342  0.7031  -1.7527   0.0000  -0.3245
  -2.600  -0.1189   0.02641   0.02054  -0.0687  0.9321  0.7133  -1.6986   0.0000  -0.3429
  -2.500  -0.1146   0.02685   0.02096  -0.0669  0.9292  0.7223  -1.6527   0.0000  -0.3491
  -2.400  -0.1063   0.02738   0.02145  -0.0656  0.9272  0.7324  -1.5945   0.0000  -0.3828
  -2.300  -0.1051   0.02779   0.02187  -0.0628  0.9244  0.7381  -1.5564   0.0000  -0.3631
  -2.200  -0.1004   0.02818   0.02224  -0.0608  0.9219  0.7465  -1.5089   0.0000  -0.3718
  -2.100  -0.0931   0.02862   0.02264  -0.0592  0.9202  0.7566  -1.4534   0.0000  -0.4021
  -2.000  -0.0904   0.02893   0.02294  -0.0572  0.9172  0.7662  -1.4129   0.0000  -0.3990
  -1.900  -0.0900   0.02919   0.02321  -0.0539  0.9148  0.7731  -1.3765   0.0000  -0.3653
  -1.800  -0.0851   0.02949   0.02351  -0.0516  0.9131  0.7842  -1.3276   0.0000  -0.3721
  -1.700  -0.0865   0.02962   0.02363  -0.0487  0.9096  0.7928  -1.2991   0.0000  -0.3281
  -1.600  -0.0832   0.02977   0.02377  -0.0463  0.9074  0.8037  -1.2562   0.0000  -0.3218
  -1.500  -0.0772   0.02988   0.02386  -0.0443  0.9059  0.8146  -1.2061   0.0000  -0.3402
  -1.400  -0.0763   0.02992   0.02388  -0.0423  0.9022  0.8229  -1.1734   0.0000  -0.3206
  -1.300  -0.0725   0.02984   0.02379  -0.0401  0.9001  0.8297  -1.1312   0.0000  -0.3188
  -1.200  -0.0606   0.02984   0.02375  -0.0401  0.8987  0.8366  -1.0690   0.0000  -0.4282
  -1.100  -0.0587   0.02976   0.02364  -0.0385  0.8951  0.8403  -1.0352   0.0000  -0.4221
  -1.000  -0.0448   0.02976   0.02359  -0.0393  0.8931  0.8435  -0.9708   0.0000  -0.6488
  -0.900  -0.0282   0.02977   0.02353  -0.0407  0.8917  0.8460  -0.9001   0.0000  -1.2233
  -0.800  -0.0236   0.02968   0.02343  -0.0396  0.8885  0.8482  -0.8607   0.0000  -1.4643
  -0.700  -0.0129   0.02963   0.02335  -0.0398  0.8861  0.8505  -0.8063   0.0000  -2.8865
  -0.600   0.0023   0.02963   0.02329  -0.0408  0.8845  0.8529  -0.7413   0.0000  18.0121
  -0.500   0.0161   0.02966   0.02328  -0.0418  0.8824  0.8553  -0.6859   0.0000   2.8774
  -0.400   0.0234   0.02961   0.02321  -0.0414  0.8792  0.8573  -0.6465   0.0000   2.0381
  -0.300   0.0359   0.02955   0.02311  -0.0417  0.8774  0.8591  -0.5959   0.0000   1.4257
  -0.200   0.0514   0.02952   0.02304  -0.0427  0.8760  0.8610  -0.5392   0.0000   1.0869
  -0.100   0.0575   0.02954   0.02303  -0.0423  0.8722  0.8632  -0.5045   0.0000   0.9899
   0.000   0.0721   0.02956   0.02301  -0.0433  0.8701  0.8651  -0.4520   0.0000   0.8537
   0.100   0.0888   0.02955   0.02297  -0.0446  0.8686  0.8667  -0.4298   0.0000   0.7543
   0.200   0.0959   0.02951   0.02291  -0.0441  0.8655  0.8683  -0.4337   0.0000   0.7108
   0.300   0.1059   0.02948   0.02286  -0.0441  0.8627  0.8700  -0.4392   0.0000   0.6669
   0.400   0.1207   0.02945   0.02281  -0.0450  0.8610  0.8716  -0.4476   0.0000   0.6223
   0.500   0.1377   0.02943   0.02276  -0.0462  0.8598  0.8732  -0.4572   0.0000   0.5850
   0.600   0.1436   0.02951   0.02283  -0.0459  0.8555  0.8750  -0.4602   0.0000   0.5686
   0.700   0.1587   0.02953   0.02282  -0.0470  0.8535  0.8765  -0.4686   0.0000   0.5446
   0.800   0.1732   0.02944   0.02272  -0.0476  0.8521  0.8778  -0.4771   0.0000   0.5231
   0.900   0.1797   0.02946   0.02273  -0.0471  0.8484  0.8794  -0.4814   0.0000   0.5101
   1.000   0.1915   0.02944   0.02270  -0.0475  0.8458  0.8809  -0.4888   0.0000   0.4955
   1.100   0.2074   0.02940   0.02264  -0.0485  0.8441  0.8822  -0.4985   0.0000   0.4813
   1.200   0.2250   0.02935   0.02257  -0.0498  0.8430  0.8834  -0.5093   0.0000   0.4686
   1.400   0.2463   0.02945   0.02266  -0.0506  0.8362  0.8862  -0.5227   0.0000   0.4520
   1.500   0.2618   0.02934   0.02254  -0.0513  0.8349  0.8873  -0.5335   0.0000   0.4427
   1.600   0.2670   0.02940   0.02261  -0.0506  0.8305  0.8887  -0.5378   0.0000   0.4362
   1.700   0.2800   0.02936   0.02256  -0.0511  0.8282  0.8900  -0.5470   0.0000   0.4290
   1.800   0.2961   0.02928   0.02248  -0.0521  0.8267  0.8912  -0.5581   0.0000   0.4222
   1.900   0.3103   0.02926   0.02245  -0.0529  0.8246  0.8924  -0.5680   0.0000   0.4165
   2.000   0.3181   0.02936   0.02256  -0.0528  0.8202  0.8937  -0.5738   0.0000   0.4119
   2.100   0.3348   0.02930   0.02250  -0.0539  0.8184  0.8948  -0.5864   0.0000   0.4070
   2.200   0.3519   0.02918   0.02238  -0.0550  0.8172  0.8957  -0.5994   0.0000   0.4022
   2.300   0.3562   0.02928   0.02249  -0.0542  0.8122  0.8969  -0.6042   0.0000   0.3979
   2.400   0.3702   0.02918   0.02240  -0.0548  0.8101  0.8980  -0.6154   0.0000   0.3935
   2.500   0.3867   0.02904   0.02226  -0.0557  0.8087  0.8991  -0.6282   0.0000   0.3895
   2.600   0.4034   0.02889   0.02213  -0.0566  0.8073  0.9001  -0.6423   0.0000   0.3859
   2.700   0.4079   0.02908   0.02232  -0.0560  0.8017  0.9015  -0.6480   0.0000   0.3827
   2.800   0.4246   0.02894   0.02220  -0.0570  0.8001  0.9025  -0.6624   0.0000   0.3796
   2.900   0.4427   0.02877   0.02204  -0.0582  0.7990  0.9035  -0.6779   0.0000   0.3767
   3.100   0.4626   0.02877   0.02207  -0.0583  0.7915  0.9055  -0.6975   0.0000   0.3709
   3.200   0.4794   0.02853   0.02186  -0.0591  0.7902  0.9064  -0.7127   0.0000   0.3682
   3.300   0.4961   0.02831   0.02166  -0.0599  0.7889  0.9072  -0.7292   0.0000   0.3657
   3.400   0.5005   0.02850   0.02187  -0.0593  0.7829  0.9084  -0.7362   0.0000   0.3631
   3.500   0.5176   0.02825   0.02164  -0.0601  0.7814  0.9093  -0.7532   0.0000   0.3609
   3.600   0.5358   0.02794   0.02136  -0.0612  0.7803  0.9102  -0.7733   0.0000   0.3587
   3.800   0.5584   0.02788   0.02136  -0.0616  0.7725  0.9123  -0.8088   0.0000   0.3547
   3.900   0.5762   0.02754   0.02104  -0.0625  0.7714  0.9131  -0.8349   0.0000   0.3528
   4.000   0.5938   0.02714   0.02068  -0.0632  0.7704  0.9139  -0.8640   0.0000   0.3507
   4.100   0.5967   0.02737   0.02093  -0.0622  0.7637  0.9152  -0.8766   0.0000   0.3485
   4.200   0.6139   0.02699   0.02058  -0.0629  0.7624  0.9161  -0.9079   0.0000   0.3466
   4.300   0.6321   0.02654   0.02017  -0.0638  0.7614  0.9170  -0.9428   0.0000   0.3449
   4.400   0.6508   0.02607   0.01974  -0.0646  0.7605  0.9178  -0.9805   0.0000   0.3433
   4.600   0.6737   0.02582   0.01957  -0.0648  0.7524  0.9197  -1.0431   0.0000   0.3400
   4.700   0.6934   0.02527   0.01906  -0.0658  0.7516  0.9205  -1.0916   0.0000   0.3386
   4.800   0.7132   0.02469   0.01853  -0.0667  0.7510  0.9212  -1.1412   0.0000   0.3372
   5.000   0.7341   0.02431   0.01823  -0.0662  0.7427  0.9232  -1.2229   0.0000   0.3337
   5.100   0.7543   0.02370   0.01769  -0.0672  0.7418  0.9240  -1.2856   0.0000   0.3325
   5.200   0.7759   0.02305   0.01708  -0.0684  0.7410  0.9248  -1.3521   0.0000   0.3315
   5.300   0.7795   0.02313   0.01720  -0.0673  0.7336  0.9259  -1.3806   0.0000   0.3296
   5.400   0.8022   0.02236   0.01648  -0.0686  0.7322  0.9265  -1.4551   0.0000   0.3286
   5.600   0.8332   0.02137   0.01558  -0.0692  0.7233  0.9282  -1.5958   0.0000   0.3260
   5.700   0.8572   0.02045   0.01472  -0.0704  0.7210  0.9288  -1.6919   0.0000   0.3251
   5.800   0.8638   0.02030   0.01462  -0.0695  0.7135  0.9300  -1.7395   0.0000   0.3233
   5.900   0.8799   0.01976   0.01412  -0.0698  0.7085  0.9309  -1.8150   0.0000   0.3221
   6.100   0.9054   0.01906   0.01350  -0.0697  0.6951  0.9329  -1.9515   0.0000   0.3195
   6.200   0.9230   0.01855   0.01302  -0.0703  0.6889  0.9337  -2.0404   0.0000   0.3185
   6.300   0.9354   0.01828   0.01279  -0.0702  0.6805  0.9346  -2.1133   0.0000   0.3174
   6.400   0.9463   0.01808   0.01263  -0.0700  0.6712  0.9355  -2.1822   0.0000   0.3161
   6.500   0.9575   0.01787   0.01245  -0.0698  0.6614  0.9365  -2.2526   0.0000   0.3149
   6.600   0.9685   0.01766   0.01226  -0.0695  0.6507  0.9376  -2.3234   0.0000   0.3137
   6.700   0.9799   0.01746   0.01207  -0.0693  0.6390  0.9386  -2.3961   0.0000   0.3125
   6.800   0.9922   0.01727   0.01187  -0.0692  0.6261  0.9397  -2.4723   0.0000   0.3114
   6.900   1.0011   0.01722   0.01182  -0.0687  0.6116  0.9409  -2.5374   0.0000   0.3102
   7.000   1.0110   0.01716   0.01174  -0.0683  0.5959  0.9421  -2.6066   0.0000   0.3090
   7.100   1.0204   0.01715   0.01170  -0.0679  0.5787  0.9431  -2.6744   0.0000   0.3078
   7.200   1.0288   0.01716   0.01166  -0.0673  0.5602  0.9442  -2.7397   0.0000   0.3066
   7.300   1.0356   0.01724   0.01169  -0.0665  0.5404  0.9454  -2.7995   0.0000   0.3052
   7.400   1.0420   0.01736   0.01173  -0.0656  0.5192  0.9467  -2.8583   0.0000   0.3039
   7.500   1.0475   0.01754   0.01182  -0.0646  0.4965  0.9481  -2.9141   0.0000   0.3025
   7.600   1.0520   0.01778   0.01195  -0.0636  0.4724  0.9496  -2.9709   0.0000   0.3011
   7.700   1.0553   0.01807   0.01211  -0.0623  0.4475  0.9512  -3.0240   0.0000   0.2996
   7.800   1.0581   0.01843   0.01234  -0.0611  0.4212  0.9529  -3.0746   0.0000   0.2981
   7.900   1.0601   0.01885   0.01262  -0.0598  0.3937  0.9547  -3.1224   0.0000   0.2967
   8.000   1.0612   0.01934   0.01295  -0.0585  0.3658  0.9565  -3.1667   0.0000   0.2952
   8.100   1.0615   0.01987   0.01334  -0.0571  0.3372  0.9584  -3.2077   0.0000   0.2937
   8.200   1.0615   0.02047   0.01377  -0.0557  0.3076  0.9606  -3.2465   0.0000   0.2923
   8.300   1.0608   0.02112   0.01424  -0.0543  0.2779  0.9630  -3.2827   0.0000   0.2908
   8.400   1.0600   0.02184   0.01476  -0.0530  0.2484  0.9659  -3.3175   0.0000   0.2895
   8.500   1.0592   0.02261   0.01533  -0.0517  0.2200  0.9693  -3.3513   0.0000   0.2882
   8.800   1.0586   0.02490   0.01713  -0.0483  0.1566  1.0000  -3.4525   0.0000   0.2846
   8.900   1.0602   0.02574   0.01783  -0.0476  0.1426  1.0000  -3.4908   0.0000   0.2836
   9.000   1.0627   0.02652   0.01852  -0.0469  0.1305  1.0000  -3.5317   0.0000   0.2827
   9.100   1.0653   0.02732   0.01922  -0.0462  0.1213  1.0000  -3.5728   0.0000   0.2819
   9.200   1.0683   0.02809   0.01992  -0.0456  0.1135  1.0000  -3.6150   0.0000   0.2810
   9.300   1.0721   0.02883   0.02060  -0.0451  0.1064  1.0000  -3.6595   0.0000   0.2803
   9.400   1.0765   0.02954   0.02126  -0.0446  0.1000  1.0000  -3.7057   0.0000   0.2795
   9.500   1.0813   0.03023   0.02194  -0.0442  0.0943  1.0000  -3.7528   0.0000   0.2788
   9.600   1.0862   0.03092   0.02260  -0.0438  0.0894  1.0000  -3.8009   0.0000   0.2781
   9.700   1.0909   0.03164   0.02322  -0.0434  0.0855  1.0000  -3.8516   0.0000   0.2774
   9.800   1.0974   0.03225   0.02387  -0.0431  0.0810  1.0000  -3.9018   0.0000   0.2768
   9.900   1.1037   0.03292   0.02450  -0.0429  0.0775  1.0000  -3.9537   0.0000   0.2762
  10.000   1.1103   0.03354   0.02510  -0.0426  0.0742  1.0000  -4.0087   0.0000   0.2756
  10.100   1.1179   0.03419   0.02575  -0.0424  0.0712  1.0000  -4.0615   0.0000   0.2750
  10.200   1.1255   0.03480   0.02633  -0.0423  0.0684  1.0000  -4.1262   0.0000   0.2745
  10.300   1.1340   0.03544   0.02695  -0.0422  0.0658  1.0000  -4.1932   0.0000   0.2740
  10.400   1.1421   0.03603   0.02756  -0.0421  0.0632  1.0000  -4.2599   0.0000   0.2735
  10.500   1.1524   0.03667   0.02811  -0.0422  0.0611  1.0000  -4.3395   0.0000   0.2731
  10.600   1.1618   0.03729   0.02883  -0.0421  0.0590  1.0000  -4.4011   0.0000   0.2726
  10.700   1.1732   0.03790   0.02940  -0.0423  0.0572  1.0000  -4.4808   0.0000   0.2723
  10.800   1.1876   0.03861   0.03007  -0.0427  0.0555  1.0000  -4.5673   0.0000   0.2721
  10.900   1.1980   0.03931   0.03089  -0.0427  0.0538  1.0000  -4.6293   0.0000   0.2717
  11.000   1.2096   0.03995   0.03152  -0.0429  0.0522  1.0000  -4.7106   0.0000   0.2714
  11.100   1.2256   0.04072   0.03219  -0.0437  0.0506  1.0000  -4.8139   0.0000   0.2715
  11.200   1.2323   0.04150   0.03317  -0.0434  0.0494  1.0000  -4.8578   0.0000   0.2708
  11.300   1.2421   0.04226   0.03401  -0.0434  0.0481  1.0000  -4.9239   0.0000   0.2704
  11.400   1.2559   0.04301   0.03474  -0.0439  0.0470  1.0000  -5.0138   0.0000   0.2703
  11.500   1.2792   0.04413   0.03576  -0.0456  0.0458  1.0000  -5.1373   0.0000   0.2709
  11.600   1.2853   0.04515   0.03700  -0.0451  0.0453  1.0000  -5.1672   0.0000   0.2702
  11.700   1.2925   0.04626   0.03830  -0.0448  0.0448  1.0000  -5.2042   0.0000   0.2696
  11.800   1.2999   0.04743   0.03963  -0.0445  0.0443  1.0000  -5.2519   0.0000   0.2691
  11.900   1.3065   0.04859   0.04095  -0.0442  0.0439  1.0000  -5.2990   0.0000   0.2685
  12.000   1.3124   0.04972   0.04221  -0.0438  0.0434  1.0000  -5.3471   0.0000   0.2680
  12.100   1.3182   0.05079   0.04339  -0.0435  0.0429  1.0000  -5.4015   0.0000   0.2675
  12.200   1.3263   0.05175   0.04439  -0.0436  0.0423  1.0000  -5.4766   0.0000   0.2671
  12.300   1.3510   0.05307   0.04552  -0.0457  0.0411  1.0000  -5.6481   0.0000   0.2680
  12.400   1.3471   0.05416   0.04681  -0.0443  0.0410  1.0000  -5.6492   0.0000   0.2669
  12.500   1.3436   0.05532   0.04818  -0.0429  0.0408  1.0000  -5.6512   0.0000   0.2658
  12.600   1.3403   0.05656   0.04960  -0.0417  0.0406  1.0000  -5.6538   0.0000   0.2648
  12.700   1.3371   0.05786   0.05107  -0.0406  0.0404  1.0000  -5.6568   0.0000   0.2639
  12.800   1.3338   0.05921   0.05259  -0.0395  0.0402  1.0000  -5.6587   0.0000   0.2630
  12.900   1.3301   0.06062   0.05416  -0.0384  0.0401  1.0000  -5.6585   0.0000   0.2621
  13.000   1.3264   0.06209   0.05579  -0.0375  0.0401  1.0000  -5.6571   0.0000   0.2613
  13.100   1.3223   0.06361   0.05746  -0.0365  0.0401  1.0000  -5.6537   0.0000   0.2605
  13.200   1.3177   0.06517   0.05916  -0.0356  0.0401  1.0000  -5.6481   0.0000   0.2598
  13.300   1.3127   0.06676   0.06089  -0.0347  0.0401  1.0000  -5.6404   0.0000   0.2590
  13.400   1.3073   0.06840   0.06266  -0.0339  0.0402  1.0000  -5.6310   0.0000   0.2583
  13.500   1.3015   0.07007   0.06447  -0.0331  0.0402  1.0000  -5.6199   0.0000   0.2577
  13.600   1.2954   0.07179   0.06631  -0.0324  0.0403  1.0000  -5.6075   0.0000   0.2571
  13.700   1.2890   0.07354   0.06818  -0.0318  0.0403  1.0000  -5.5941   0.0000   0.2566
  13.800   1.2825   0.07533   0.07008  -0.0313  0.0404  1.0000  -5.5798   0.0000   0.2561
  13.900   1.2758   0.07716   0.07203  -0.0308  0.0405  1.0000  -5.5649   0.0000   0.2557
  14.000   1.2691   0.07904   0.07400  -0.0305  0.0406  1.0000  -5.5498   0.0000   0.2554
  14.100   1.2625   0.08095   0.07601  -0.0302  0.0407  1.0000  -5.5348   0.0000   0.2551
  14.200   1.2559   0.08288   0.07804  -0.0300  0.0407  1.0000  -5.5201   0.0000   0.2549
  14.300   1.2495   0.08485   0.08010  -0.0299  0.0408  1.0000  -5.5062   0.0000   0.2548
  14.400   1.2435   0.08685   0.08217  -0.0299  0.0409  1.0000  -5.4939   0.0000   0.2547
  14.500   1.2381   0.08886   0.08426  -0.0300  0.0410  1.0000  -5.4839   0.0000   0.2547
  14.600   1.2336   0.09089   0.08635  -0.0301  0.0411  1.0000  -5.4779   0.0000   0.2547
  14.700   1.2306   0.09290   0.08841  -0.0303  0.0412  1.0000  -5.4787   0.0000   0.2547
  14.800   1.1553   0.10119   0.09729  -0.0337  0.0428  1.0000  -5.0006   0.0000   0.2589
  14.900   1.1362   0.10534   0.10158  -0.0357  0.0433  1.0000  -4.8875   0.0000   0.2610
  15.000   1.1201   0.10938   0.10573  -0.0379  0.0436  1.0000  -4.7919   0.0000   0.2632
  15.100   1.1055   0.11345   0.10989  -0.0403  0.0440  1.0000  -4.7033   0.0000   0.2656
  15.200   1.0923   0.11756   0.11407  -0.0428  0.0444  1.0000  -4.6191   0.0000   0.2682
  15.300   1.0804   0.12164   0.11821  -0.0454  0.0447  1.0000  -4.5400   0.0000   0.2709
  15.400   1.0702   0.12558   0.12220  -0.0479  0.0450  1.0000  -4.4694   0.0000   0.2735
  15.500   1.0624   0.12920   0.12586  -0.0502  0.0453  1.0000  -4.4129   0.0000   0.2758
  15.600   1.0575   0.13230   0.12898  -0.0519  0.0455  1.0000  -4.3772   0.0000   0.2775
  15.700   1.0560   0.13470   0.13138  -0.0531  0.0458  1.0000  -4.3683   0.0000   0.2785
  15.800   1.0589   0.13619   0.13287  -0.0534  0.0459  1.0000  -4.3944   0.0000   0.2785
  18.700   0.6351   0.18737   0.18440  -0.0672  0.0748  1.0000  -1.2929   0.0000   0.3391
  18.800   0.6396   0.18865   0.18568  -0.0675  0.0739  1.0000  -1.3167   0.0000   0.3386
  18.900   0.6476   0.19019   0.18724  -0.0673  0.0733  1.0000  -1.3669   0.0000   0.3367
  19.000   0.6481   0.19180   0.18883  -0.0682  0.0729  1.0000  -1.3511   0.0000   0.3380
  19.100   0.6425   0.19318   0.19021  -0.0701  0.0721  1.0000  -1.2828   0.0000   0.3418
  19.200   0.6421   0.19460   0.19164  -0.0712  0.0709  1.0000  -1.2595   0.0000   0.3435
  19.300   0.6439   0.19595   0.19299  -0.0719  0.0698  1.0000  -1.2564   0.0000   0.3442
  19.400   0.6466   0.19725   0.19429  -0.0725  0.0688  1.0000  -1.2638   0.0000   0.3444
  19.500   0.6506   0.19854   0.19559  -0.0728  0.0680  1.0000  -1.2830   0.0000   0.3441
  19.600   0.6571   0.20004   0.19710  -0.0728  0.0674  1.0000  -1.3231   0.0000   0.3427
  19.700   0.6600   0.20174   0.19880  -0.0733  0.0671  1.0000  -1.3267   0.0000   0.3429
  19.800   0.6549   0.20306   0.20011  -0.0751  0.0665  1.0000  -1.2585   0.0000   0.3466
  19.900   0.6542   0.20450   0.20155  -0.0763  0.0653  1.0000  -1.2291   0.0000   0.3484
  20.000   0.6558   0.20585   0.20291  -0.0771  0.0641  1.0000  -1.2239   0.0000   0.3491


