xflr5 v6.32

 Calculated polar for: foil1 modified

 1 1 Reynolds number fixed          Mach number fixed         

 xtrf =   1.000 (top)        1.000 (bottom)
 Mach =   0.000     Re =     0.300 e 6     Ncrit =   9.000

  alpha     CL        CD       CDp       Cm    Top Xtr Bot Xtr   Cpmin    Chinge    XCp    
 ------- -------- --------- --------- -------- ------- ------- -------- --------- ---------
 -12.200  -0.4255   0.13129   0.12833  -0.0408  1.0000  0.0339  -1.8479   0.0000   0.1357
 -12.100  -0.4281   0.13030   0.12735  -0.0405  1.0000  0.0342  -1.8591   0.0000   0.1374
 -12.000  -0.4256   0.12836   0.12541  -0.0420  0.9995  0.0347  -1.8779   0.0000   0.1334
 -11.900  -0.4250   0.12585   0.12290  -0.0442  0.9990  0.0354  -1.9346   0.0000   0.1281
 -11.800  -0.4390   0.11927   0.11636  -0.0515  0.9979  0.0361  -2.2679   0.0000   0.1149
 -11.700  -0.4397   0.11634   0.11343  -0.0538  0.9973  0.0362  -2.3335   0.0000   0.1101
 -11.600  -0.4329   0.11565   0.11274  -0.0533  0.9970  0.0364  -2.2553   0.0000   0.1093
 -11.500  -0.4268   0.11479   0.11187  -0.0533  0.9966  0.0365  -2.1949   0.0000   0.1075
 -11.400  -0.4212   0.11378   0.11085  -0.0536  0.9961  0.0366  -2.1464   0.0000   0.1051
 -11.300  -0.4160   0.11263   0.10970  -0.0542  0.9957  0.0368  -2.1079   0.0000   0.1021
 -11.200  -0.4113   0.11135   0.10841  -0.0550  0.9952  0.0370  -2.0788   0.0000   0.0987
 -11.100  -0.4071   0.10994   0.10700  -0.0559  0.9946  0.0373  -2.0586   0.0000   0.0951
 -11.000  -0.4034   0.10839   0.10546  -0.0570  0.9940  0.0376  -2.0464   0.0000   0.0911
 -10.900  -0.3999   0.10671   0.10377  -0.0584  0.9935  0.0379  -2.0415   0.0000   0.0866
 -10.800  -0.3971   0.10490   0.10197  -0.0598  0.9927  0.0383  -2.0441   0.0000   0.0820
 -10.700  -0.3948   0.10294   0.10000  -0.0614  0.9920  0.0387  -2.0551   0.0000   0.0771
 -10.600  -0.3930   0.10073   0.09779  -0.0633  0.9914  0.0392  -2.0775   0.0000   0.0716
 -10.500  -0.3929   0.09804   0.09510  -0.0658  0.9905  0.0398  -2.1263   0.0000   0.0654
 -10.400  -0.4257   0.08396   0.08102  -0.0822  0.9877  0.0409  -2.6946   0.0000   0.0404
 -10.300  -0.4409   0.07901   0.07599  -0.0882  0.9857  0.0410  -2.8592   0.0000   0.0341
 -10.200  -0.4534   0.07576   0.07266  -0.0920  0.9834  0.0410  -2.9647   0.0000   0.0318
 -10.100  -0.4653   0.07307   0.06988  -0.0951  0.9812  0.0410  -3.0542   0.0000   0.0308
 -10.000  -0.4768   0.07085   0.06756  -0.0978  0.9786  0.0410  -3.1320   0.0000   0.0307
  -9.900  -0.4880   0.06913   0.06575  -0.0995  0.9750  0.0410  -3.1961   0.0000   0.0323
  -7.500  -0.3811   0.03017   0.02414  -0.1117  0.9393  0.0310  -3.4171   0.0000  -0.0564
  -7.400  -0.3690   0.02908   0.02300  -0.1123  0.9390  0.0305  -3.3837   0.0000  -0.0679
  -7.300  -0.3688   0.02858   0.02245  -0.1105  0.9355  0.0302  -3.3779   0.0000  -0.0629
  -7.200  -0.3579   0.02741   0.02113  -0.1107  0.9347  0.0295  -3.3810   0.0000  -0.0729
  -7.100  -0.3461   0.02636   0.01993  -0.1111  0.9341  0.0291  -3.3777   0.0000  -0.0846
  -7.000  -0.3336   0.02560   0.01906  -0.1115  0.9336  0.0291  -3.3440   0.0000  -0.0983
  -6.900  -0.3208   0.02492   0.01829  -0.1120  0.9332  0.0293  -3.3028   0.0000  -0.1135
  -6.800  -0.3082   0.02427   0.01755  -0.1125  0.9327  0.0294  -3.2624   0.0000  -0.1295
  -6.700  -0.3070   0.02402   0.01724  -0.1107  0.9293  0.0295  -3.2441   0.0000  -0.1249
  -6.600  -0.2952   0.02342   0.01655  -0.1109  0.9285  0.0295  -3.2069   0.0000  -0.1403
  -6.500  -0.2829   0.02281   0.01586  -0.1111  0.9279  0.0294  -3.1697   0.0000  -0.1579
  -6.400  -0.2703   0.02223   0.01522  -0.1114  0.9274  0.0293  -3.1286   0.0000  -0.1776
  -6.300  -0.2576   0.02171   0.01465  -0.1117  0.9270  0.0294  -3.0822   0.0000  -0.1996
  -6.200  -0.2448   0.02124   0.01413  -0.1120  0.9266  0.0295  -3.0318   0.0000  -0.2242
  -6.000  -0.2318   0.02073   0.01356  -0.1104  0.9224  0.0298  -2.9545   0.0000  -0.2428
  -5.900  -0.2201   0.02036   0.01317  -0.1105  0.9216  0.0301  -2.9016   0.0000  -0.2693
  -5.800  -0.2080   0.02000   0.01278  -0.1107  0.9210  0.0304  -2.8469   0.0000  -0.3002
  -5.700  -0.1956   0.01967   0.01240  -0.1110  0.9205  0.0308  -2.7907   0.0000  -0.3360
  -5.600  -0.1830   0.01935   0.01206  -0.1114  0.9200  0.0312  -2.7332   0.0000  -0.3780
  -5.400  -0.1702   0.01890   0.01161  -0.1098  0.9157  0.0320  -2.6467   0.0000  -0.4153
  -5.300  -0.1589   0.01855   0.01131  -0.1101  0.9148  0.0326  -2.5818   0.0000  -0.4637
  -5.200  -0.1466   0.01826   0.01103  -0.1105  0.9141  0.0334  -2.5140   0.0000  -0.5255
  -5.100  -0.1340   0.01799   0.01076  -0.1110  0.9136  0.0343  -2.4480   0.0000  -0.6017
  -5.000  -0.1210   0.01775   0.01049  -0.1115  0.9131  0.0356  -2.3820   0.0000  -0.6970
  -4.900  -0.1182   0.01773   0.01045  -0.1101  0.9096  0.0364  -2.3458   0.0000  -0.7067
  -4.800  -0.1074   0.01744   0.01021  -0.1103  0.9085  0.0379  -2.2789   0.0000  -0.8048
  -4.700  -0.0951   0.01722   0.01000  -0.1108  0.9077  0.0398  -2.2123   0.0000  -0.9446
  -4.600  -0.0825   0.01692   0.00970  -0.1113  0.9070  0.0418  -2.1646   0.0000  -1.1338
  -4.500  -0.0694   0.01665   0.00945  -0.1119  0.9065  0.0443  -2.1113   0.0000  -1.4020
  -4.400  -0.0561   0.01635   0.00916  -0.1126  0.9060  0.0476  -2.0625   0.0000  -1.8053
  -4.300  -0.0524   0.01634   0.00916  -0.1114  0.9025  0.0504  -2.0321   0.0000  -1.9258
  -4.200  -0.0406   0.01609   0.00893  -0.1118  0.9014  0.0563  -1.9849   0.0000  -2.5687
  -4.100  -0.0278   0.01576   0.00867  -0.1125  0.9006  0.0672  -1.9342   0.0000  -3.8797
  -4.000  -0.0145   0.01526   0.00836  -0.1134  0.8999  0.0996  -1.8833   0.0000  -7.7481
  -3.900  -0.0002   0.01422   0.00794  -0.1154  0.8993  0.2306  -1.8231   0.0000  -774.4543
  -3.800   0.0165   0.01265   0.00746  -0.1186  0.8990  0.4925  -1.7495   0.0000   7.5832
  -3.600   0.0314   0.01274   0.00805  -0.1169  0.8947  0.6115  -1.6398   0.0000   4.0379
  -3.500   0.0423   0.01290   0.00825  -0.1166  0.8936  0.6338  -1.5747   0.0000   3.0536
  -3.400   0.0542   0.01305   0.00839  -0.1164  0.8928  0.6486  -1.5072   0.0000   2.4361
  -3.300   0.0664   0.01320   0.00851  -0.1164  0.8921  0.6597  -1.4389   0.0000   2.0314
  -3.200   0.0787   0.01336   0.00865  -0.1163  0.8916  0.6682  -1.3708   0.0000   1.7508
  -3.000   0.0947   0.01388   0.00914  -0.1148  0.8870  0.6801  -1.2612   0.0000   1.4797
  -2.900   0.1066   0.01404   0.00926  -0.1148  0.8860  0.6872  -1.1964   0.0000   1.3420
  -2.800   0.1168   0.01430   0.00953  -0.1141  0.8852  0.6904  -1.1357   0.0000   1.2398
  -2.700   0.1292   0.01446   0.00965  -0.1140  0.8845  0.6963  -1.0708   0.0000   1.1447
  -2.600   0.1401   0.01470   0.00989  -0.1135  0.8839  0.6998  -1.0096   0.0000   1.0706
  -2.400   0.1545   0.01532   0.01050  -0.1114  0.8791  0.7095  -0.9101   0.0000   0.9798
  -2.300   0.1620   0.01570   0.01091  -0.1098  0.8780  0.7121  -0.8584   0.0000   0.9357
  -2.200   0.1711   0.01604   0.01126  -0.1086  0.8771  0.7165  -0.8038   0.0000   0.8922
  -2.100   0.1817   0.01627   0.01149  -0.1080  0.8765  0.7219  -0.7466   0.0000   0.8507
  -2.000   0.1905   0.01654   0.01176  -0.1067  0.8758  0.7244  -0.6941   0.0000   0.8160
  -1.900   0.1935   0.01682   0.01206  -0.1050  0.8718  0.7275  -0.6585   0.0000   0.7982
  -1.800   0.2073   0.01678   0.01197  -0.1058  0.8707  0.7321  -0.5992   0.0000   0.7650
  -1.700   0.2181   0.01680   0.01197  -0.1055  0.8698  0.7330  -0.5515   0.0000   0.7378
  -1.600   0.2296   0.01678   0.01195  -0.1053  0.8691  0.7339  -0.5132   0.0000   0.7124
  -1.500   0.2415   0.01676   0.01190  -0.1053  0.8684  0.7350  -0.5190   0.0000   0.6893
  -1.400   0.2539   0.01671   0.01184  -0.1054  0.8679  0.7362  -0.5250   0.0000   0.6681
  -1.300   0.2587   0.01686   0.01199  -0.1044  0.8640  0.7378  -0.5269   0.0000   0.6560
  -1.200   0.2711   0.01681   0.01192  -0.1047  0.8628  0.7399  -0.5331   0.0000   0.6385
  -1.100   0.2869   0.01667   0.01173  -0.1061  0.8620  0.7433  -0.5408   0.0000   0.6216
  -1.000   0.2984   0.01662   0.01167  -0.1060  0.8611  0.7440  -0.5468   0.0000   0.6067
  -0.900   0.3101   0.01656   0.01160  -0.1059  0.8604  0.7447  -0.5530   0.0000   0.5927
  -0.800   0.3223   0.01650   0.01153  -0.1060  0.8598  0.7456  -0.5594   0.0000   0.5797
  -0.700   0.3274   0.01663   0.01167  -0.1049  0.8560  0.7468  -0.5617   0.0000   0.5711
  -0.600   0.3386   0.01659   0.01162  -0.1049  0.8546  0.7480  -0.5674   0.0000   0.5602
  -0.500   0.3509   0.01652   0.01154  -0.1051  0.8536  0.7494  -0.5738   0.0000   0.5497
  -0.400   0.3643   0.01643   0.01143  -0.1056  0.8528  0.7511  -0.5809   0.0000   0.5398
  -0.300   0.3800   0.01630   0.01126  -0.1068  0.8521  0.7538  -0.5894   0.0000   0.5308
  -0.200   0.3934   0.01618   0.01113  -0.1072  0.8515  0.7551  -0.5969   0.0000   0.5222
  -0.100   0.3987   0.01628   0.01125  -0.1062  0.8477  0.7559  -0.6001   0.0000   0.5157
   0.000   0.4095   0.01623   0.01119  -0.1060  0.8462  0.7567  -0.6064   0.0000   0.5082
   0.100   0.4212   0.01615   0.01111  -0.1060  0.8451  0.7575  -0.6134   0.0000   0.5009
   0.200   0.4335   0.01606   0.01102  -0.1062  0.8442  0.7585  -0.6210   0.0000   0.4939
   0.300   0.4463   0.01596   0.01091  -0.1064  0.8435  0.7595  -0.6288   0.0000   0.4873
   0.500   0.4662   0.01596   0.01091  -0.1062  0.8387  0.7625  -0.6417   0.0000   0.4763
   0.600   0.4799   0.01586   0.01079  -0.1069  0.8373  0.7645  -0.6503   0.0000   0.4711
   0.700   0.4948   0.01573   0.01064  -0.1078  0.8362  0.7664  -0.6596   0.0000   0.4662
   0.800   0.5068   0.01561   0.01052  -0.1078  0.8353  0.7670  -0.6681   0.0000   0.4609
   0.900   0.5192   0.01549   0.01040  -0.1079  0.8344  0.7677  -0.6769   0.0000   0.4559
   1.000   0.5257   0.01555   0.01048  -0.1071  0.8307  0.7686  -0.6826   0.0000   0.4516
   1.100   0.5368   0.01547   0.01042  -0.1070  0.8289  0.7695  -0.6915   0.0000   0.4472
   1.200   0.5491   0.01537   0.01031  -0.1072  0.8276  0.7704  -0.7011   0.0000   0.4429
   1.300   0.5620   0.01525   0.01018  -0.1075  0.8266  0.7714  -0.7111   0.0000   0.4388
   1.400   0.5756   0.01511   0.01004  -0.1079  0.8256  0.7725  -0.7218   0.0000   0.4349
   1.500   0.5836   0.01516   0.01011  -0.1075  0.8218  0.7739  -0.7297   0.0000   0.4315
   1.600   0.5965   0.01506   0.01001  -0.1079  0.8199  0.7754  -0.7407   0.0000   0.4282
   1.700   0.6116   0.01494   0.00987  -0.1089  0.8185  0.7772  -0.7530   0.0000   0.4252
   1.800   0.6249   0.01480   0.00973  -0.1093  0.8174  0.7781  -0.7655   0.0000   0.4219
   1.900   0.6341   0.01475   0.00970  -0.1088  0.8147  0.7788  -0.7757   0.0000   0.4185
   2.000   0.6436   0.01470   0.00967  -0.1085  0.8118  0.7796  -0.7860   0.0000   0.4153
   2.100   0.6556   0.01458   0.00955  -0.1085  0.8099  0.7804  -0.7980   0.0000   0.4122
   2.200   0.6684   0.01443   0.00940  -0.1087  0.8085  0.7812  -0.8107   0.0000   0.4093
   2.300   0.6786   0.01438   0.00937  -0.1086  0.8056  0.7821  -0.8215   0.0000   0.4065
   2.400   0.6890   0.01432   0.00933  -0.1084  0.8026  0.7830  -0.8339   0.0000   0.4038
   2.500   0.7016   0.01420   0.00921  -0.1087  0.8005  0.7840  -0.8480   0.0000   0.4012
   2.600   0.7153   0.01407   0.00907  -0.1091  0.7989  0.7851  -0.8668   0.0000   0.3988
   2.700   0.7252   0.01405   0.00907  -0.1090  0.7952  0.7864  -0.8852   0.0000   0.3964
   2.800   0.7379   0.01396   0.00899  -0.1094  0.7924  0.7877  -0.9075   0.0000   0.3943
   2.900   0.7531   0.01384   0.00885  -0.1104  0.7903  0.7892  -0.9344   0.0000   0.3924
   3.000   0.7627   0.01376   0.00880  -0.1100  0.7871  0.7898  -0.9573   0.0000   0.3900
   3.100   0.7724   0.01369   0.00875  -0.1096  0.7836  0.7905  -0.9815   0.0000   0.3876
   3.200   0.7842   0.01358   0.00865  -0.1097  0.7812  0.7912  -1.0094   0.0000   0.3854
   3.300   0.7950   0.01351   0.00860  -0.1096  0.7782  0.7920  -1.0385   0.0000   0.3833
   3.400   0.8048   0.01346   0.00858  -0.1093  0.7743  0.7928  -1.0687   0.0000   0.3812
   3.500   0.8169   0.01337   0.00848  -0.1094  0.7716  0.7936  -1.1047   0.0000   0.3792
   3.600   0.8276   0.01331   0.00844  -0.1094  0.7678  0.7944  -1.1387   0.0000   0.3773
   3.700   0.8383   0.01323   0.00839  -0.1093  0.7635  0.7953  -1.1744   0.0000   0.3754
   3.800   0.8505   0.01313   0.00827  -0.1094  0.7594  0.7962  -1.2195   0.0000   0.3736
   3.900   0.8607   0.01306   0.00822  -0.1092  0.7536  0.7972  -1.2613   0.0000   0.3718
   4.000   0.8721   0.01297   0.00814  -0.1093  0.7480  0.7983  -1.3058   0.0000   0.3701
   4.100   0.8842   0.01289   0.00805  -0.1095  0.7421  0.7994  -1.3519   0.0000   0.3685
   4.200   0.8954   0.01286   0.00802  -0.1096  0.7353  0.8006  -1.3966   0.0000   0.3669
   4.300   0.9059   0.01277   0.00793  -0.1094  0.7295  0.8012  -1.4407   0.0000   0.3652
   4.400   0.9153   0.01271   0.00789  -0.1090  0.7228  0.8019  -1.4900   0.0000   0.3634
   4.500   0.9247   0.01268   0.00787  -0.1086  0.7159  0.8026  -1.5437   0.0000   0.3616
   4.600   0.9350   0.01263   0.00782  -0.1084  0.7091  0.8033  -1.6003   0.0000   0.3600
   4.700   0.9448   0.01261   0.00780  -0.1080  0.7016  0.8041  -1.6562   0.0000   0.3583
   4.800   0.9543   0.01260   0.00780  -0.1077  0.6933  0.8049  -1.7117   0.0000   0.3567
   4.900   0.9640   0.01259   0.00779  -0.1074  0.6848  0.8057  -1.7685   0.0000   0.3552
   5.000   0.9738   0.01260   0.00778  -0.1072  0.6754  0.8066  -1.8260   0.0000   0.3537
   5.100   0.9835   0.01261   0.00778  -0.1069  0.6651  0.8074  -1.8868   0.0000   0.3522
   5.200   0.9931   0.01265   0.00779  -0.1066  0.6538  0.8083  -1.9496   0.0000   0.3508
   5.300   1.0026   0.01269   0.00780  -0.1063  0.6415  0.8092  -2.0128   0.0000   0.3494
   5.400   1.0120   0.01277   0.00783  -0.1061  0.6283  0.8102  -2.0763   0.0000   0.3480
   5.500   1.0212   0.01286   0.00788  -0.1058  0.6139  0.8112  -2.1399   0.0000   0.3467
   5.600   1.0304   0.01298   0.00794  -0.1055  0.5983  0.8121  -2.2037   0.0000   0.3454
   5.700   1.0375   0.01308   0.00798  -0.1047  0.5826  0.8127  -2.2618   0.0000   0.3438
   5.800   1.0442   0.01321   0.00805  -0.1039  0.5654  0.8132  -2.3192   0.0000   0.3422
   5.900   1.0503   0.01337   0.00813  -0.1030  0.5471  0.8138  -2.3750   0.0000   0.3407
   6.000   1.0558   0.01356   0.00823  -0.1020  0.5270  0.8145  -2.4297   0.0000   0.3391
   6.100   1.0608   0.01378   0.00836  -0.1009  0.5060  0.8152  -2.4827   0.0000   0.3375
   6.200   1.0653   0.01403   0.00850  -0.0998  0.4840  0.8160  -2.5344   0.0000   0.3359
   6.300   1.0693   0.01430   0.00867  -0.0986  0.4613  0.8168  -2.5847   0.0000   0.3343
   6.400   1.0730   0.01460   0.00885  -0.0973  0.4381  0.8177  -2.6340   0.0000   0.3327
   6.500   1.0764   0.01492   0.00906  -0.0961  0.4148  0.8186  -2.6829   0.0000   0.3311
   6.600   1.0793   0.01524   0.00926  -0.0948  0.3922  0.8195  -2.7300   0.0000   0.3295
   6.700   1.0820   0.01556   0.00948  -0.0934  0.3702  0.8203  -2.7765   0.0000   0.3280
   6.800   1.0848   0.01591   0.00971  -0.0922  0.3482  0.8211  -2.8236   0.0000   0.3265
   6.900   1.0880   0.01628   0.00996  -0.0910  0.3261  0.8219  -2.8719   0.0000   0.3250
   7.000   1.0916   0.01668   0.01025  -0.0900  0.3036  0.8227  -2.9258   0.0000   0.3237
   7.100   1.0959   0.01711   0.01055  -0.0892  0.2803  0.8235  -2.9826   0.0000   0.3225
   7.200   1.0992   0.01751   0.01084  -0.0881  0.2582  0.8241  -3.0364   0.0000   0.3211
   7.300   1.1026   0.01793   0.01114  -0.0870  0.2355  0.8248  -3.0902   0.0000   0.3198
   7.400   1.1057   0.01839   0.01147  -0.0860  0.2136  0.8254  -3.1434   0.0000   0.3184
   7.500   1.1092   0.01884   0.01181  -0.0850  0.1913  0.8261  -3.1979   0.0000   0.3172
   7.600   1.1126   0.01931   0.01216  -0.0840  0.1700  0.8268  -3.2523   0.0000   0.3159
   7.700   1.1161   0.01979   0.01252  -0.0831  0.1505  0.8274  -3.3071   0.0000   0.3147
   7.800   1.1200   0.02027   0.01289  -0.0822  0.1331  0.8280  -3.3631   0.0000   0.3136
   7.900   1.1240   0.02073   0.01326  -0.0813  0.1187  0.8287  -3.4199   0.0000   0.3124
   8.000   1.1284   0.02119   0.01363  -0.0806  0.1064  0.8293  -3.4777   0.0000   0.3113
   8.100   1.1331   0.02162   0.01401  -0.0798  0.0960  0.8301  -3.5369   0.0000   0.3102
   8.200   1.1379   0.02206   0.01438  -0.0791  0.0873  0.8308  -3.5964   0.0000   0.3092
   8.300   1.1428   0.02250   0.01477  -0.0784  0.0801  0.8316  -3.6561   0.0000   0.3081
   8.400   1.1480   0.02293   0.01516  -0.0777  0.0738  0.8323  -3.7165   0.0000   0.3071
   8.500   1.1533   0.02335   0.01556  -0.0771  0.0684  0.8330  -3.7773   0.0000   0.3061
   8.600   1.1587   0.02378   0.01596  -0.0765  0.0636  0.8336  -3.8383   0.0000   0.3051
   8.700   1.1639   0.02422   0.01639  -0.0759  0.0597  0.8342  -3.8983   0.0000   0.3042
   8.800   1.1686   0.02467   0.01681  -0.0752  0.0565  0.8347  -3.9572   0.0000   0.3032
   8.900   1.1737   0.02505   0.01721  -0.0745  0.0533  0.8353  -4.0154   0.0000   0.3022
   9.000   1.1774   0.02553   0.01767  -0.0737  0.0510  0.8358  -4.0707   0.0000   0.3011
   9.100   1.1828   0.02591   0.01808  -0.0730  0.0485  0.8365  -4.1293   0.0000   0.3001
   9.200   1.1870   0.02636   0.01852  -0.0722  0.0465  0.8371  -4.1871   0.0000   0.2991
   9.300   1.1915   0.02681   0.01900  -0.0715  0.0446  0.8377  -4.2423   0.0000   0.2981
   9.400   1.1966   0.02722   0.01942  -0.0709  0.0427  0.8384  -4.3023   0.0000   0.2972
   9.500   1.1999   0.02777   0.01995  -0.0700  0.0414  0.8389  -4.3565   0.0000   0.2962
   9.600   1.2052   0.02818   0.02040  -0.0694  0.0397  0.8395  -4.4180   0.0000   0.2953
   9.700   1.2103   0.02861   0.02086  -0.0688  0.0383  0.8401  -4.4858   0.0000   0.2944
   9.800   1.2142   0.02914   0.02137  -0.0682  0.0372  0.8406  -4.5499   0.0000   0.2935
   9.900   1.2179   0.02969   0.02194  -0.0674  0.0361  0.8412  -4.6086   0.0000   0.2926
  10.000   1.2230   0.03015   0.02244  -0.0668  0.0350  0.8417  -4.6731   0.0000   0.2917
  10.100   1.2276   0.03064   0.02295  -0.0662  0.0341  0.8423  -4.7381   0.0000   0.2909
  10.200   1.2316   0.03118   0.02348  -0.0656  0.0333  0.8428  -4.8024   0.0000   0.2900
  10.300   1.2340   0.03186   0.02415  -0.0648  0.0326  0.8433  -4.8580   0.0000   0.2891
  10.400   1.2386   0.03240   0.02473  -0.0641  0.0319  0.8439  -4.9182   0.0000   0.2883
  10.500   1.2435   0.03291   0.02529  -0.0636  0.0311  0.8445  -4.9809   0.0000   0.2874
  10.600   1.2482   0.03344   0.02585  -0.0630  0.0304  0.8451  -5.0446   0.0000   0.2866
  10.700   1.2525   0.03397   0.02639  -0.0624  0.0298  0.8456  -5.1094   0.0000   0.2858
  10.800   1.2563   0.03451   0.02694  -0.0617  0.0293  0.8462  -5.1742   0.0000   0.2850
  10.900   1.2593   0.03516   0.02756  -0.0610  0.0288  0.8467  -5.2349   0.0000   0.2841
  11.000   1.2628   0.03581   0.02823  -0.0603  0.0283  0.8472  -5.2914   0.0000   0.2833
  11.100   1.2678   0.03629   0.02879  -0.0597  0.0277  0.8477  -5.3549   0.0000   0.2825
  11.200   1.2726   0.03681   0.02936  -0.0592  0.0272  0.8482  -5.4191   0.0000   0.2817
  11.300   1.2773   0.03733   0.02993  -0.0586  0.0266  0.8487  -5.4855   0.0000   0.2810
  11.400   1.2818   0.03787   0.03048  -0.0581  0.0261  0.8492  -5.5540   0.0000   0.2802
  11.500   1.2863   0.03842   0.03104  -0.0576  0.0257  0.8497  -5.6241   0.0000   0.2795
  11.600   1.2906   0.03901   0.03161  -0.0571  0.0253  0.8502  -5.6940   0.0000   0.2788
  11.700   1.2952   0.03968   0.03225  -0.0565  0.0249  0.8507  -5.7615   0.0000   0.2781
  11.800   1.3002   0.04031   0.03293  -0.0559  0.0246  0.8512  -5.8226   0.0000   0.2773
  11.900   1.3050   0.04089   0.03359  -0.0554  0.0243  0.8517  -5.8869   0.0000   0.2766
  12.000   1.3100   0.04149   0.03425  -0.0549  0.0239  0.8523  -5.9568   0.0000   0.2759
  12.100   1.3150   0.04210   0.03492  -0.0544  0.0236  0.8529  -6.0280   0.0000   0.2752
  12.200   1.3200   0.04271   0.03558  -0.0539  0.0233  0.8535  -6.1008   0.0000   0.2745
  12.300   1.3252   0.04332   0.03623  -0.0534  0.0230  0.8541  -6.1754   0.0000   0.2738
  12.400   1.3301   0.04395   0.03690  -0.0530  0.0227  0.8547  -6.2500   0.0000   0.2732
  12.500   1.3351   0.04458   0.03757  -0.0526  0.0225  0.8553  -6.3261   0.0000   0.2725
  12.600   1.3401   0.04522   0.03823  -0.0521  0.0222  0.8558  -6.4040   0.0000   0.2719
  12.700   1.3453   0.04584   0.03887  -0.0517  0.0220  0.8562  -6.4839   0.0000   0.2713
  12.800   1.3510   0.04645   0.03949  -0.0513  0.0217  0.8567  -6.5675   0.0000   0.2707
  12.900   1.3586   0.04709   0.04012  -0.0510  0.0215  0.8571  -6.6601   0.0000   0.2701
  13.000   1.3678   0.04787   0.04091  -0.0507  0.0212  0.8576  -6.7490   0.0000   0.2695
  13.100   1.3693   0.04868   0.04184  -0.0500  0.0211  0.8580  -6.7976   0.0000   0.2688
  13.200   1.3709   0.04953   0.04281  -0.0494  0.0209  0.8585  -6.8460   0.0000   0.2681
  13.300   1.3726   0.05041   0.04380  -0.0488  0.0207  0.8590  -6.8944   0.0000   0.2674
  13.400   1.3743   0.05132   0.04481  -0.0481  0.0205  0.8595  -6.9428   0.0000   0.2667
  13.500   1.3758   0.05224   0.04583  -0.0475  0.0203  0.8600  -6.9918   0.0000   0.2661
  13.600   1.3773   0.05317   0.04686  -0.0470  0.0201  0.8606  -7.0418   0.0000   0.2654
  13.700   1.3787   0.05411   0.04788  -0.0464  0.0199  0.8612  -7.0930   0.0000   0.2648
  13.800   1.3801   0.05504   0.04889  -0.0459  0.0197  0.8617  -7.1457   0.0000   0.2643
  13.900   1.3815   0.05598   0.04989  -0.0454  0.0195  0.8623  -7.2001   0.0000   0.2637
  14.000   1.3830   0.05691   0.05088  -0.0450  0.0193  0.8629  -7.2564   0.0000   0.2631
  14.100   1.3846   0.05785   0.05188  -0.0445  0.0191  0.8635  -7.3140   0.0000   0.2626
  14.200   1.3864   0.05880   0.05288  -0.0441  0.0190  0.8641  -7.3719   0.0000   0.2621
  14.300   1.3882   0.05977   0.05390  -0.0438  0.0189  0.8646  -7.4304   0.0000   0.2616
  14.400   1.3891   0.06083   0.05502  -0.0434  0.0188  0.8651  -7.4809   0.0000   0.2611
  14.500   1.3898   0.06191   0.05616  -0.0430  0.0187  0.8656  -7.5312   0.0000   0.2606
  14.600   1.3904   0.06302   0.05732  -0.0426  0.0185  0.8660  -7.5810   0.0000   0.2602
  14.700   1.3910   0.06415   0.05851  -0.0422  0.0185  0.8665  -7.6300   0.0000   0.2597
  14.800   1.3914   0.06531   0.05972  -0.0419  0.0184  0.8669  -7.6772   0.0000   0.2592
  14.900   1.3917   0.06654   0.06101  -0.0415  0.0183  0.8673  -7.7211   0.0000   0.2588
  15.000   1.3916   0.06789   0.06241  -0.0411  0.0182  0.8677  -7.7586   0.0000   0.2583
  15.100   1.3907   0.06938   0.06398  -0.0408  0.0181  0.8682  -7.7859   0.0000   0.2579
  15.200   1.3886   0.07104   0.06573  -0.0404  0.0180  0.8686  -7.8005   0.0000   0.2575
  15.300   1.3841   0.07277   0.06755  -0.0401  0.0180  0.8689  -7.8010   0.0000   0.2572
  15.400   1.3782   0.07450   0.06940  -0.0398  0.0180  0.8693  -7.7955   0.0000   0.2569
  15.500   1.3722   0.07630   0.07131  -0.0397  0.0180  0.8697  -7.7877   0.0000   0.2567
  15.600   1.3660   0.07818   0.07329  -0.0396  0.0180  0.8701  -7.7777   0.0000   0.2566
  15.700   1.3596   0.08012   0.07534  -0.0396  0.0179  0.8706  -7.7654   0.0000   0.2565
  15.800   1.3530   0.08212   0.07745  -0.0397  0.0179  0.8710  -7.7506   0.0000   0.2565
  15.900   1.3463   0.08420   0.07962  -0.0399  0.0179  0.8714  -7.7336   0.0000   0.2566
  16.000   1.3394   0.08634   0.08187  -0.0402  0.0179  0.8719  -7.7145   0.0000   0.2568
  16.100   1.3323   0.08857   0.08419  -0.0407  0.0179  0.8724  -7.6932   0.0000   0.2570
  16.200   1.3252   0.09086   0.08659  -0.0412  0.0179  0.8728  -7.6699   0.0000   0.2573
  16.300   1.3180   0.09323   0.08905  -0.0418  0.0179  0.8733  -7.6445   0.0000   0.2578
  16.400   1.3107   0.09567   0.09158  -0.0425  0.0179  0.8737  -7.6173   0.0000   0.2583
  16.500   1.3033   0.09817   0.09418  -0.0433  0.0179  0.8741  -7.5881   0.0000   0.2589
  16.600   1.2960   0.10074   0.09683  -0.0443  0.0180  0.8746  -7.5572   0.0000   0.2595
  16.700   1.2886   0.10338   0.09955  -0.0453  0.0180  0.8750  -7.5245   0.0000   0.2603
  16.800   1.2812   0.10607   0.10233  -0.0464  0.0180  0.8754  -7.4901   0.0000   0.2612
  16.900   1.2739   0.10880   0.10514  -0.0477  0.0180  0.8758  -7.4543   0.0000   0.2621
  17.000   1.2667   0.11158   0.10799  -0.0489  0.0180  0.8761  -7.4171   0.0000   0.2631
  17.200   1.2491   0.11789   0.11450  -0.0526  0.0181  0.8768  -7.3109   0.0000   0.2662
  17.300   1.2358   0.12220   0.11896  -0.0555  0.0182  0.8770  -7.2024   0.0000   0.2687
  17.600   1.0781   0.17146   0.16911  -0.0896  0.0209  0.8730  -5.1376   0.0000   0.3073
  17.700   1.0713   0.17591   0.17357  -0.0922  0.0210  0.8733  -5.0158   0.0000   0.3102
  17.800   1.0683   0.17899   0.17665  -0.0940  0.0212  0.8737  -4.9535   0.0000   0.3120
  17.900   1.0677   0.18116   0.17883  -0.0951  0.0212  0.8741  -4.9321   0.0000   0.3130


