xflr5 v6.32

 Calculated polar for: foil1 modified

 1 1 Reynolds number fixed          Mach number fixed         

 xtrf =   1.000 (top)        1.000 (bottom)
 Mach =   0.000     Re =    65.000 e 6     Ncrit =   9.000

  alpha     CL        CD       CDp       Cm    Top Xtr Bot Xtr   Cpmin    Chinge    XCp    
 ------- -------- --------- --------- -------- ------- ------- -------- --------- ---------
 -15.000  -1.2350   0.00973   0.00636  -0.0972  0.8164  0.0041  -17.3549   0.0000   0.1525
 -14.900  -1.2240   0.00963   0.00626  -0.0974  0.8160  0.0041  -17.1614   0.0000   0.1518
 -14.800  -1.2131   0.00954   0.00616  -0.0976  0.8153  0.0041  -16.9687   0.0000   0.1511
 -14.700  -1.2021   0.00944   0.00607  -0.0978  0.8144  0.0041  -16.7769   0.0000   0.1504
 -14.600  -1.1912   0.00935   0.00597  -0.0980  0.8131  0.0041  -16.5859   0.0000   0.1496
 -14.500  -1.1802   0.00926   0.00588  -0.0981  0.8116  0.0041  -16.3958   0.0000   0.1489
 -14.400  -1.1692   0.00917   0.00579  -0.0983  0.8098  0.0041  -16.2065   0.0000   0.1481
 -14.300  -1.1582   0.00909   0.00570  -0.0985  0.8079  0.0041  -16.0178   0.0000   0.1473
 -14.200  -1.1471   0.00900   0.00561  -0.0987  0.8072  0.0041  -15.8294   0.0000   0.1464
 -14.100  -1.1360   0.00891   0.00553  -0.0989  0.8067  0.0041  -15.6419   0.0000   0.1455
 -14.000  -1.1248   0.00882   0.00544  -0.0991  0.8057  0.0041  -15.4553   0.0000   0.1446
 -13.900  -1.1137   0.00874   0.00536  -0.0993  0.8042  0.0041  -15.2697   0.0000   0.1437
 -13.800  -1.1026   0.00866   0.00527  -0.0995  0.8024  0.0041  -15.0852   0.0000   0.1428
 -13.700  -1.0915   0.00858   0.00519  -0.0997  0.8001  0.0041  -14.9014   0.0000   0.1419
 -13.600  -1.0803   0.00850   0.00511  -0.0999  0.7983  0.0041  -14.7182   0.0000   0.1409
 -13.500  -1.0691   0.00842   0.00503  -0.1001  0.7977  0.0041  -14.5355   0.0000   0.1398
 -13.400  -1.0579   0.00834   0.00495  -0.1003  0.7969  0.0041  -14.3537   0.0000   0.1388
 -13.300  -1.0466   0.00826   0.00487  -0.1005  0.7956  0.0041  -14.1730   0.0000   0.1377
 -13.200  -1.0354   0.00819   0.00480  -0.1007  0.7939  0.0041  -13.9934   0.0000   0.1366
 -13.100  -1.0242   0.00812   0.00472  -0.1009  0.7920  0.0041  -13.8147   0.0000   0.1355
 -13.000  -1.0129   0.00804   0.00465  -0.1010  0.7898  0.0041  -13.6367   0.0000   0.1343
 -12.900  -1.0016   0.00797   0.00457  -0.1013  0.7888  0.0041  -13.4592   0.0000   0.1331
 -12.800  -0.9902   0.00789   0.00450  -0.1015  0.7882  0.0041  -13.2826   0.0000   0.1319
 -12.700  -0.9789   0.00782   0.00443  -0.1017  0.7870  0.0041  -13.1070   0.0000   0.1306
 -12.600  -0.9676   0.00775   0.00435  -0.1019  0.7852  0.0041  -12.9327   0.0000   0.1293
 -12.500  -0.9563   0.00768   0.00427  -0.1020  0.7829  0.0042  -12.7668   0.0000   0.1280
 -12.400  -0.9451   0.00760   0.00419  -0.1022  0.7803  0.0044  -12.6005   0.0000   0.1266
 -12.300  -0.9337   0.00752   0.00412  -0.1025  0.7792  0.0045  -12.4311   0.0000   0.1252
 -12.200  -0.9223   0.00745   0.00405  -0.1027  0.7782  0.0046  -12.2618   0.0000   0.1237
 -12.100  -0.9109   0.00738   0.00398  -0.1029  0.7764  0.0047  -12.0932   0.0000   0.1222
 -12.000  -0.8996   0.00731   0.00391  -0.1031  0.7741  0.0047  -11.9256   0.0000   0.1207
 -11.900  -0.8882   0.00725   0.00384  -0.1032  0.7713  0.0048  -11.7586   0.0000   0.1191
 -11.800  -0.8768   0.00718   0.00377  -0.1035  0.7698  0.0049  -11.5919   0.0000   0.1175
 -11.700  -0.8653   0.00711   0.00371  -0.1037  0.7689  0.0049  -11.4260   0.0000   0.1157
 -11.600  -0.8539   0.00704   0.00364  -0.1039  0.7669  0.0050  -11.2613   0.0000   0.1140
 -11.500  -0.8425   0.00698   0.00357  -0.1041  0.7641  0.0051  -11.0980   0.0000   0.1122
 -11.400  -0.8311   0.00692   0.00351  -0.1043  0.7609  0.0051  -10.9352   0.0000   0.1104
 -11.300  -0.8196   0.00685   0.00344  -0.1045  0.7597  0.0052  -10.7728   0.0000   0.1085
 -11.200  -0.8081   0.00679   0.00338  -0.1047  0.7579  0.0052  -10.6114   0.0000   0.1065
 -11.100  -0.7967   0.00673   0.00332  -0.1049  0.7550  0.0053  -10.4514   0.0000   0.1045
 -11.000  -0.7853   0.00667   0.00326  -0.1051  0.7516  0.0054  -10.2921   0.0000   0.1024
 -10.900  -0.7737   0.00661   0.00320  -0.1053  0.7501  0.0054  -10.1330   0.0000   0.1002
 -10.800  -0.7622   0.00656   0.00315  -0.1055  0.7483  0.0054  -9.9750   0.0000   0.0980
 -10.700  -0.7508   0.00651   0.00309  -0.1057  0.7450  0.0055  -9.8187   0.0000   0.0957
 -10.600  -0.7393   0.00646   0.00304  -0.1059  0.7415  0.0055  -9.6631   0.0000   0.0933
 -10.500  -0.7277   0.00641   0.00299  -0.1061  0.7399  0.0055  -9.5079   0.0000   0.0908
 -10.400  -0.7162   0.00636   0.00294  -0.1063  0.7374  0.0056  -9.3542   0.0000   0.0883
 -10.300  -0.7047   0.00631   0.00289  -0.1065  0.7337  0.0056  -9.2020   0.0000   0.0856
 -10.200  -0.6931   0.00627   0.00284  -0.1067  0.7307  0.0056  -9.0502   0.0000   0.0829
 -10.100  -0.6815   0.00622   0.00279  -0.1069  0.7289  0.0056  -8.8993   0.0000   0.0800
 -10.000  -0.6700   0.00618   0.00275  -0.1071  0.7261  0.0056  -8.7500   0.0000   0.0771
  -9.900  -0.6585   0.00614   0.00270  -0.1072  0.7225  0.0056  -8.6018   0.0000   0.0741
  -9.800  -0.6468   0.00609   0.00266  -0.1075  0.7203  0.0056  -8.4540   0.0000   0.0709
  -9.700  -0.6352   0.00605   0.00261  -0.1077  0.7183  0.0057  -8.3074   0.0000   0.0676
  -9.600  -0.6237   0.00601   0.00257  -0.1078  0.7149  0.0057  -8.1625   0.0000   0.0642
  -9.500  -0.6121   0.00597   0.00253  -0.1080  0.7107  0.0057  -8.0185   0.0000   0.0606
  -9.400  -0.6005   0.00593   0.00248  -0.1082  0.7086  0.0057  -7.8751   0.0000   0.0569
  -9.300  -0.5890   0.00589   0.00244  -0.1084  0.7051  0.0057  -7.7334   0.0000   0.0531
  -9.200  -0.5774   0.00586   0.00240  -0.1086  0.7006  0.0057  -7.5928   0.0000   0.0491
  -9.100  -0.5658   0.00582   0.00236  -0.1088  0.6984  0.0057  -7.4526   0.0000   0.0449
  -9.000  -0.5542   0.00579   0.00232  -0.1090  0.6943  0.0057  -7.3143   0.0000   0.0406
  -8.900  -0.5427   0.00575   0.00228  -0.1092  0.6897  0.0057  -7.1768   0.0000   0.0361
  -8.800  -0.5311   0.00572   0.00224  -0.1094  0.6865  0.0057  -7.0402   0.0000   0.0313
  -8.700  -0.5196   0.00569   0.00221  -0.1095  0.6810  0.0057  -6.9055   0.0000   0.0264
  -8.600  -0.5079   0.00566   0.00217  -0.1097  0.6776  0.0057  -6.7710   0.0000   0.0212
  -8.500  -0.4964   0.00563   0.00213  -0.1099  0.6731  0.0057  -6.6382   0.0000   0.0158
  -8.400  -0.4848   0.00560   0.00209  -0.1101  0.6683  0.0057  -6.5061   0.0000   0.0101
  -8.300  -0.4732   0.00557   0.00206  -0.1103  0.6648  0.0057  -6.3751   0.0000   0.0042
  -8.200  -0.4617   0.00555   0.00203  -0.1105  0.6584  0.0057  -6.2459   0.0000  -0.0020
  -8.100  -0.4501   0.00552   0.00199  -0.1107  0.6548  0.0058  -6.1170   0.0000  -0.0087
  -8.000  -0.4386   0.00550   0.00196  -0.1108  0.6482  0.0058  -5.9901   0.0000  -0.0155
  -7.900  -0.4270   0.00547   0.00193  -0.1110  0.6444  0.0058  -5.8633   0.0000  -0.0229
  -7.800  -0.4155   0.00546   0.00190  -0.1112  0.6381  0.0058  -5.7386   0.0000  -0.0305
  -7.700  -0.4038   0.00543   0.00186  -0.1114  0.6340  0.0058  -5.6141   0.0000  -0.0388
  -7.600  -0.3923   0.00541   0.00184  -0.1115  0.6285  0.0058  -5.4915   0.0000  -0.0474
  -7.500  -0.3807   0.00538   0.00180  -0.1117  0.6240  0.0058  -5.3692   0.0000  -0.0567
  -7.400  -0.3692   0.00537   0.00178  -0.1119  0.6183  0.0058  -5.2488   0.0000  -0.0663
  -7.300  -0.3576   0.00535   0.00175  -0.1121  0.6128  0.0058  -5.1290   0.0000  -0.0768
  -7.200  -0.3460   0.00533   0.00172  -0.1122  0.6074  0.0058  -5.0108   0.0000  -0.0878
  -7.100  -0.3344   0.00531   0.00169  -0.1124  0.6023  0.0058  -4.8931   0.0000  -0.0998
  -7.000  -0.3229   0.00529   0.00167  -0.1126  0.5968  0.0058  -4.7771   0.0000  -0.1125
  -6.900  -0.3113   0.00528   0.00164  -0.1127  0.5910  0.0058  -4.6618   0.0000  -0.1262
  -6.800  -0.2998   0.00526   0.00161  -0.1129  0.5852  0.0058  -4.5481   0.0000  -0.1408
  -6.700  -0.2882   0.00525   0.00159  -0.1131  0.5793  0.0058  -4.4351   0.0000  -0.1568
  -6.600  -0.2767   0.00524   0.00157  -0.1132  0.5727  0.0058  -4.3238   0.0000  -0.1739
  -6.400  -0.2536   0.00521   0.00152  -0.1136  0.5603  0.0058  -4.1039   0.0000  -0.2131
  -6.300  -0.2419   0.00519   0.00149  -0.1138  0.5564  0.0058  -3.9950   0.0000  -0.2359
  -6.200  -0.2304   0.00519   0.00147  -0.1139  0.5484  0.0058  -3.8883   0.0000  -0.2603
  -6.100  -0.2188   0.00517   0.00145  -0.1141  0.5443  0.0058  -3.7819   0.0000  -0.2879
  -6.000  -0.2073   0.00517   0.00143  -0.1142  0.5370  0.0058  -3.6773   0.0000  -0.3181
  -5.900  -0.1956   0.00515   0.00140  -0.1144  0.5335  0.0058  -3.5729   0.0000  -0.3525
  -5.800  -0.1841   0.00514   0.00139  -0.1146  0.5260  0.0058  -3.4707   0.0000  -0.3905
  -5.700  -0.1724   0.00513   0.00136  -0.1148  0.5221  0.0058  -3.3687   0.0000  -0.4344
  -5.600  -0.1609   0.00513   0.00135  -0.1149  0.5144  0.0058  -3.2687   0.0000  -0.4837
  -5.500  -0.1493   0.00511   0.00133  -0.1151  0.5098  0.0058  -3.1692   0.0000  -0.5414
  -5.400  -0.1378   0.00511   0.00131  -0.1152  0.5018  0.0058  -3.0715   0.0000  -0.6080
  -5.300  -0.1263   0.00511   0.00130  -0.1154  0.4946  0.0058  -2.9750   0.0000  -0.6864
  -5.200  -0.1147   0.00510   0.00128  -0.1155  0.4886  0.0058  -2.8790   0.0000  -0.7820
  -5.100  -0.1033   0.00511   0.00126  -0.1157  0.4796  0.0058  -2.7849   0.0000  -0.8969
  -5.000  -0.0918   0.00511   0.00125  -0.1158  0.4731  0.0058  -2.6917   0.0000  -1.0415
  -4.900  -0.0802   0.00510   0.00123  -0.1160  0.4668  0.0059  -2.6046   0.0000  -1.2295
  -4.800  -0.0687   0.00510   0.00122  -0.1161  0.4599  0.0063  -2.5245   0.0000  -1.4782
  -4.600  -0.0455   0.00509   0.00119  -0.1165  0.4479  0.0069  -2.3620   0.0000  -2.3611
  -4.400  -0.0223   0.00507   0.00116  -0.1168  0.4388  0.0073  -2.2018   0.0000  -5.0967
  -4.300  -0.0106   0.00506   0.00114  -0.1170  0.4348  0.0075  -2.1225   0.0000  -11.0387
  -4.200   0.0012   0.00504   0.00112  -0.1172  0.4330  0.0077  -2.0439   0.0000  99.6282
  -4.000   0.0248   0.00501   0.00109  -0.1176  0.4307  0.0078  -1.8895   0.0000   5.0800
  -3.900   0.0365   0.00500   0.00108  -0.1177  0.4289  0.0079  -1.8139   0.0000   3.5300
  -3.800   0.0482   0.00499   0.00107  -0.1179  0.4273  0.0079  -1.7393   0.0000   2.7334
  -3.700   0.0600   0.00497   0.00106  -0.1181  0.4257  0.0079  -1.6657   0.0000   2.2483
  -3.600   0.0718   0.00496   0.00104  -0.1183  0.4239  0.0080  -1.5929   0.0000   1.9221
  -3.500   0.0836   0.00494   0.00103  -0.1185  0.4222  0.0083  -1.5216   0.0000   1.6882
  -3.400   0.0953   0.00494   0.00102  -0.1187  0.4197  0.0088  -1.4514   0.0000   1.5127
  -3.300   0.1068   0.00494   0.00101  -0.1188  0.4133  0.0092  -1.3827   0.0000   1.3772
  -3.200   0.1185   0.00493   0.00100  -0.1190  0.4101  0.0097  -1.3144   0.0000   1.2669
  -3.100   0.1300   0.00494   0.00100  -0.1192  0.4020  0.0101  -1.2478   0.0000   1.1779
  -3.000   0.1416   0.00494   0.00098  -0.1193  0.3976  0.0108  -1.1816   0.0000   1.1024
  -2.900   0.1531   0.00494   0.00098  -0.1195  0.3897  0.0127  -1.1171   0.0000   1.0390
  -2.800   0.1646   0.00495   0.00097  -0.1196  0.3834  0.0136  -1.0533   0.0000   0.9845
  -2.600   0.1875   0.00496   0.00097  -0.1199  0.3678  0.0162  -0.9286   0.0000   0.8953
  -2.500   0.1990   0.00498   0.00096  -0.1200  0.3610  0.0177  -0.8677   0.0000   0.8586
  -2.400   0.2106   0.00498   0.00095  -0.1202  0.3548  0.0192  -0.8076   0.0000   0.8256
  -2.300   0.2220   0.00500   0.00096  -0.1203  0.3458  0.0201  -0.7487   0.0000   0.7963
  -2.200   0.2334   0.00500   0.00096  -0.1204  0.3397  0.0223  -0.6907   0.0000   0.7698
  -2.100   0.2450   0.00501   0.00095  -0.1206  0.3336  0.0241  -0.6333   0.0000   0.7456
  -2.000   0.2565   0.00501   0.00095  -0.1207  0.3277  0.0271  -0.5773   0.0000   0.7237
  -1.800   0.2796   0.00503   0.00095  -0.1210  0.3157  0.0326  -0.5484   0.0000   0.6852
  -1.700   0.2912   0.00502   0.00094  -0.1212  0.3112  0.0357  -0.5534   0.0000   0.6682
  -1.600   0.3026   0.00504   0.00095  -0.1213  0.3034  0.0388  -0.5583   0.0000   0.6526
  -1.500   0.3141   0.00505   0.00095  -0.1214  0.2977  0.0426  -0.5635   0.0000   0.6382
  -1.400   0.3256   0.00505   0.00095  -0.1216  0.2911  0.0468  -0.5690   0.0000   0.6247
  -1.300   0.3369   0.00507   0.00096  -0.1217  0.2812  0.0514  -0.5744   0.0000   0.6122
  -1.200   0.3483   0.00509   0.00096  -0.1218  0.2719  0.0571  -0.5799   0.0000   0.6006
  -1.100   0.3596   0.00511   0.00097  -0.1219  0.2631  0.0628  -0.5853   0.0000   0.5897
  -1.000   0.3711   0.00512   0.00098  -0.1220  0.2566  0.0688  -0.5907   0.0000   0.5794
  -0.700   0.4057   0.00512   0.00099  -0.1225  0.2400  0.0955  -0.6082   0.0000   0.5519
  -0.600   0.4172   0.00512   0.00099  -0.1227  0.2345  0.1092  -0.6141   0.0000   0.5438
  -0.500   0.4288   0.00511   0.00099  -0.1228  0.2314  0.1180  -0.6201   0.0000   0.5361
  -0.400   0.4404   0.00510   0.00100  -0.1230  0.2282  0.1290  -0.6260   0.0000   0.5288
  -0.300   0.4520   0.00510   0.00101  -0.1232  0.2236  0.1407  -0.6320   0.0000   0.5218
  -0.200   0.4637   0.00510   0.00101  -0.1233  0.2216  0.1470  -0.6380   0.0000   0.5152
  -0.100   0.4751   0.00511   0.00102  -0.1235  0.2173  0.1533  -0.6439   0.0000   0.5090
   0.000   0.4867   0.00512   0.00103  -0.1236  0.2126  0.1591  -0.6498   0.0000   0.5030
   0.100   0.4980   0.00514   0.00104  -0.1237  0.2049  0.1667  -0.6558   0.0000   0.4973
   0.200   0.5094   0.00514   0.00105  -0.1239  0.1988  0.1808  -0.6628   0.0000   0.4919
   0.600   0.5554   0.00516   0.00110  -0.1245  0.1768  0.2329  -0.6922   0.0000   0.4724
   0.700   0.5667   0.00519   0.00112  -0.1246  0.1706  0.2372  -0.7001   0.0000   0.4680
   0.800   0.5780   0.00522   0.00113  -0.1247  0.1637  0.2407  -0.7082   0.0000   0.4637
   0.900   0.5892   0.00526   0.00116  -0.1248  0.1559  0.2442  -0.7171   0.0000   0.4597
   1.000   0.6006   0.00529   0.00117  -0.1249  0.1491  0.2499  -0.7262   0.0000   0.4558
   1.100   0.6119   0.00532   0.00119  -0.1250  0.1424  0.2514  -0.7353   0.0000   0.4520
   1.200   0.6229   0.00538   0.00122  -0.1250  0.1320  0.2549  -0.7443   0.0000   0.4483
   1.400   0.6452   0.00546   0.00127  -0.1252  0.1144  0.2691  -0.7647   0.0000   0.4414
   1.500   0.6565   0.00549   0.00129  -0.1253  0.1087  0.2786  -0.7749   0.0000   0.4381
   1.600   0.6680   0.00549   0.00130  -0.1254  0.1048  0.2931  -0.7852   0.0000   0.4350
   1.700   0.6794   0.00550   0.00133  -0.1256  0.0999  0.3060  -0.7963   0.0000   0.4319
   1.800   0.6909   0.00550   0.00134  -0.1257  0.0971  0.3225  -0.8080   0.0000   0.4290
   2.000   0.7138   0.00551   0.00138  -0.1260  0.0903  0.3506  -0.8313   0.0000   0.4234
   2.100   0.7252   0.00553   0.00140  -0.1262  0.0870  0.3624  -0.8430   0.0000   0.4207
   2.200   0.7367   0.00553   0.00141  -0.1263  0.0851  0.3739  -0.8559   0.0000   0.4181
   2.300   0.7482   0.00554   0.00143  -0.1265  0.0833  0.3847  -0.8693   0.0000   0.4156
   2.400   0.7595   0.00556   0.00146  -0.1266  0.0797  0.3952  -0.8866   0.0000   0.4131
   2.500   0.7710   0.00557   0.00147  -0.1267  0.0782  0.4037  -0.9065   0.0000   0.4107
   2.600   0.7822   0.00560   0.00150  -0.1268  0.0729  0.4130  -0.9279   0.0000   0.4084
   2.700   0.7935   0.00563   0.00153  -0.1269  0.0697  0.4234  -0.9536   0.0000   0.4061
   2.900   0.8160   0.00568   0.00158  -0.1271  0.0606  0.4450  -1.0068   0.0000   0.4017
   3.100   0.8385   0.00573   0.00164  -0.1273  0.0527  0.4669  -1.0729   0.0000   0.3976
   3.200   0.8499   0.00575   0.00167  -0.1275  0.0507  0.4775  -1.1076   0.0000   0.3956
   3.300   0.8612   0.00577   0.00169  -0.1276  0.0491  0.4884  -1.1441   0.0000   0.3937
   3.400   0.8724   0.00579   0.00172  -0.1277  0.0458  0.4980  -1.1871   0.0000   0.3918
   3.500   0.8836   0.00583   0.00176  -0.1278  0.0425  0.5060  -1.2302   0.0000   0.3899
   3.600   0.8948   0.00587   0.00179  -0.1278  0.0392  0.5149  -1.2738   0.0000   0.3881
   3.700   0.9060   0.00589   0.00182  -0.1279  0.0361  0.5252  -1.3180   0.0000   0.3864
   3.800   0.9171   0.00593   0.00186  -0.1280  0.0324  0.5343  -1.3622   0.0000   0.3846
   3.900   0.9283   0.00597   0.00190  -0.1281  0.0309  0.5415  -1.4072   0.0000   0.3829
   4.000   0.9395   0.00600   0.00193  -0.1282  0.0287  0.5493  -1.4525   0.0000   0.3813
   4.200   0.9619   0.00606   0.00199  -0.1284  0.0267  0.5618  -1.5532   0.0000   0.3781
   4.300   0.9731   0.00610   0.00203  -0.1284  0.0247  0.5687  -1.6123   0.0000   0.3765
   4.400   0.9843   0.00613   0.00206  -0.1285  0.0242  0.5722  -1.6722   0.0000   0.3750
   4.500   0.9953   0.00618   0.00210  -0.1286  0.0224  0.5758  -1.7375   0.0000   0.3735
   4.600   1.0065   0.00621   0.00213  -0.1287  0.0211  0.5811  -1.8043   0.0000   0.3721
   4.700   1.0175   0.00627   0.00218  -0.1287  0.0192  0.5841  -1.8711   0.0000   0.3706
   4.800   1.0285   0.00631   0.00222  -0.1288  0.0175  0.5885  -1.9391   0.0000   0.3692
   4.900   1.0395   0.00636   0.00226  -0.1288  0.0162  0.5933  -2.0075   0.0000   0.3678
   5.000   1.0506   0.00640   0.00230  -0.1289  0.0150  0.5961  -2.0772   0.0000   0.3664
   5.100   1.0618   0.00644   0.00234  -0.1289  0.0147  0.6023  -2.1479   0.0000   0.3651
   5.200   1.0728   0.00648   0.00238  -0.1290  0.0142  0.6062  -2.2191   0.0000   0.3638
   5.300   1.0838   0.00653   0.00242  -0.1291  0.0136  0.6079  -2.2909   0.0000   0.3625
   5.400   1.0949   0.00657   0.00246  -0.1291  0.0130  0.6130  -2.3637   0.0000   0.3613
   5.500   1.1060   0.00660   0.00250  -0.1292  0.0124  0.6167  -2.4374   0.0000   0.3600
   5.600   1.1171   0.00664   0.00253  -0.1292  0.0123  0.6184  -2.5120   0.0000   0.3588
   5.700   1.1281   0.00669   0.00257  -0.1293  0.0122  0.6209  -2.5873   0.0000   0.3576
   5.800   1.1392   0.00672   0.00261  -0.1294  0.0121  0.6251  -2.6633   0.0000   0.3564
   5.900   1.1502   0.00677   0.00265  -0.1294  0.0119  0.6282  -2.7465   0.0000   0.3553
   6.000   1.1609   0.00683   0.00271  -0.1294  0.0109  0.6297  -2.8293   0.0000   0.3541
   6.100   1.1718   0.00689   0.00276  -0.1294  0.0098  0.6317  -2.9135   0.0000   0.3530
   6.200   1.1827   0.00694   0.00280  -0.1295  0.0094  0.6354  -2.9988   0.0000   0.3519
   6.300   1.1935   0.00699   0.00286  -0.1295  0.0088  0.6384  -3.0844   0.0000   0.3508
   6.400   1.2043   0.00705   0.00291  -0.1295  0.0082  0.6401  -3.1711   0.0000   0.3497
   6.500   1.2152   0.00710   0.00295  -0.1295  0.0076  0.6410  -3.2591   0.0000   0.3486
   6.600   1.2260   0.00715   0.00300  -0.1295  0.0075  0.6416  -3.3481   0.0000   0.3476
   6.700   1.2368   0.00721   0.00305  -0.1296  0.0074  0.6440  -3.4378   0.0000   0.3465
   6.800   1.2476   0.00726   0.00310  -0.1296  0.0071  0.6466  -3.5281   0.0000   0.3455
   6.900   1.2584   0.00732   0.00315  -0.1296  0.0069  0.6487  -3.6191   0.0000   0.3445
   7.000   1.2691   0.00738   0.00320  -0.1296  0.0066  0.6505  -3.7110   0.0000   0.3435
   7.100   1.2798   0.00743   0.00326  -0.1296  0.0064  0.6515  -3.8038   0.0000   0.3425
   7.200   1.2906   0.00749   0.00331  -0.1296  0.0061  0.6522  -3.8974   0.0000   0.3415
   7.300   1.3013   0.00755   0.00336  -0.1296  0.0058  0.6526  -3.9920   0.0000   0.3406
   7.400   1.3120   0.00760   0.00341  -0.1296  0.0057  0.6533  -4.0876   0.0000   0.3396
   7.500   1.3227   0.00766   0.00346  -0.1296  0.0057  0.6554  -4.1842   0.0000   0.3387
   7.600   1.3334   0.00771   0.00351  -0.1296  0.0057  0.6574  -4.2815   0.0000   0.3378
   7.700   1.3441   0.00776   0.00356  -0.1296  0.0057  0.6590  -4.3796   0.0000   0.3369
   7.800   1.3548   0.00782   0.00361  -0.1296  0.0056  0.6604  -4.4785   0.0000   0.3360
   7.900   1.3654   0.00788   0.00367  -0.1296  0.0056  0.6617  -4.5782   0.0000   0.3351
   8.000   1.3760   0.00794   0.00372  -0.1296  0.0055  0.6625  -4.6786   0.0000   0.3342
   8.100   1.3865   0.00800   0.00378  -0.1295  0.0054  0.6631  -4.7795   0.0000   0.3333
   8.200   1.3970   0.00807   0.00384  -0.1295  0.0053  0.6635  -4.8809   0.0000   0.3325
   8.300   1.4073   0.00814   0.00391  -0.1294  0.0051  0.6638  -4.9826   0.0000   0.3316
   8.400   1.4177   0.00821   0.00397  -0.1294  0.0049  0.6640  -5.0850   0.0000   0.3307
   8.500   1.4281   0.00828   0.00404  -0.1293  0.0047  0.6653  -5.1884   0.0000   0.3299
   8.600   1.4384   0.00835   0.00410  -0.1292  0.0045  0.6670  -5.2927   0.0000   0.3291
   8.700   1.4488   0.00842   0.00416  -0.1292  0.0043  0.6685  -5.3979   0.0000   0.3282
   8.800   1.4592   0.00848   0.00422  -0.1291  0.0042  0.6698  -5.5112   0.0000   0.3274
   8.900   1.4696   0.00855   0.00429  -0.1291  0.0041  0.6711  -5.6256   0.0000   0.3266
   9.000   1.4799   0.00861   0.00435  -0.1290  0.0040  0.6721  -5.7411   0.0000   0.3258
   9.100   1.4902   0.00868   0.00441  -0.1290  0.0040  0.6730  -5.8575   0.0000   0.3250
   9.200   1.5005   0.00874   0.00447  -0.1289  0.0040  0.6737  -5.9747   0.0000   0.3242
   9.300   1.5108   0.00881   0.00454  -0.1288  0.0040  0.6741  -6.0927   0.0000   0.3234
   9.400   1.5210   0.00888   0.00460  -0.1287  0.0040  0.6744  -6.2116   0.0000   0.3227
   9.500   1.5312   0.00895   0.00467  -0.1287  0.0040  0.6747  -6.3312   0.0000   0.3219
   9.600   1.5414   0.00902   0.00473  -0.1286  0.0040  0.6749  -6.4516   0.0000   0.3211
   9.700   1.5515   0.00909   0.00480  -0.1285  0.0040  0.6750  -6.5728   0.0000   0.3204
   9.800   1.5616   0.00916   0.00487  -0.1284  0.0040  0.6752  -6.6948   0.0000   0.3196
   9.900   1.5717   0.00924   0.00493  -0.1283  0.0040  0.6756  -6.8175   0.0000   0.3189
  10.000   1.5817   0.00931   0.00500  -0.1282  0.0040  0.6766  -6.9410   0.0000   0.3181
  10.100   1.5917   0.00938   0.00507  -0.1280  0.0039  0.6777  -7.0652   0.0000   0.3174
  10.200   1.6016   0.00946   0.00515  -0.1279  0.0039  0.6788  -7.1901   0.0000   0.3166
  10.300   1.6115   0.00954   0.00522  -0.1278  0.0039  0.6799  -7.3157   0.0000   0.3159
  10.400   1.6214   0.00961   0.00530  -0.1277  0.0039  0.6808  -7.4435   0.0000   0.3152
  10.500   1.6311   0.00970   0.00538  -0.1275  0.0038  0.6816  -7.5782   0.0000   0.3144
  10.600   1.6408   0.00978   0.00546  -0.1273  0.0037  0.6824  -7.7133   0.0000   0.3137
  10.700   1.6504   0.00987   0.00555  -0.1271  0.0037  0.6831  -7.8489   0.0000   0.3130
  10.800   1.6599   0.00997   0.00563  -0.1269  0.0036  0.6837  -7.9850   0.0000   0.3123
  10.900   1.6694   0.01006   0.00572  -0.1267  0.0035  0.6843  -8.1217   0.0000   0.3115
  11.000   1.6789   0.01015   0.00581  -0.1265  0.0034  0.6847  -8.2591   0.0000   0.3108
  11.100   1.6883   0.01025   0.00590  -0.1263  0.0033  0.6851  -8.3974   0.0000   0.3101
  11.200   1.6977   0.01034   0.00599  -0.1261  0.0032  0.6854  -8.5366   0.0000   0.3094
  11.300   1.7070   0.01043   0.00608  -0.1259  0.0031  0.6856  -8.6765   0.0000   0.3087
  11.400   1.7163   0.01053   0.00617  -0.1256  0.0030  0.6858  -8.8171   0.0000   0.3080
  11.500   1.7256   0.01062   0.00626  -0.1254  0.0029  0.6860  -8.9584   0.0000   0.3073
  11.600   1.7348   0.01071   0.00635  -0.1251  0.0029  0.6861  -9.1003   0.0000   0.3066
  11.700   1.7439   0.01081   0.00644  -0.1249  0.0028  0.6862  -9.2428   0.0000   0.3059
  11.800   1.7530   0.01091   0.00653  -0.1246  0.0027  0.6863  -9.3859   0.0000   0.3052
  11.900   1.7620   0.01100   0.00663  -0.1243  0.0026  0.6864  -9.5297   0.0000   0.3045
  12.000   1.7710   0.01110   0.00672  -0.1241  0.0026  0.6867  -9.6745   0.0000   0.3038
  12.100   1.7800   0.01119   0.00681  -0.1238  0.0026  0.6874  -9.8197   0.0000   0.3031
  12.200   1.7882   0.01128   0.00690  -0.1233  0.0026  0.6882  -9.9608   0.0000   0.3023
  12.300   1.7956   0.01137   0.00699  -0.1227  0.0026  0.6891  -10.0969   0.0000   0.3015
  12.400   1.8034   0.01146   0.00708  -0.1222  0.0026  0.6901  -10.2366   0.0000   0.3008
  12.500   1.8112   0.01156   0.00718  -0.1217  0.0026  0.6909  -10.3773   0.0000   0.3000
  12.600   1.8190   0.01166   0.00728  -0.1211  0.0026  0.6917  -10.5183   0.0000   0.2993
  12.700   1.8266   0.01177   0.00739  -0.1206  0.0026  0.6924  -10.6594   0.0000   0.2985
  12.800   1.8342   0.01187   0.00749  -0.1200  0.0026  0.6931  -10.8005   0.0000   0.2978
  12.900   1.8416   0.01198   0.00760  -0.1195  0.0026  0.6937  -10.9420   0.0000   0.2970
  13.000   1.8490   0.01210   0.00771  -0.1189  0.0026  0.6943  -11.0836   0.0000   0.2963
  13.100   1.8564   0.01221   0.00783  -0.1183  0.0026  0.6948  -11.2257   0.0000   0.2955
  13.200   1.8637   0.01233   0.00795  -0.1177  0.0026  0.6953  -11.3683   0.0000   0.2948
  13.300   1.8709   0.01245   0.00807  -0.1172  0.0026  0.6957  -11.5113   0.0000   0.2940
  13.400   1.8782   0.01257   0.00819  -0.1166  0.0026  0.6961  -11.6547   0.0000   0.2933
  13.500   1.8854   0.01270   0.00832  -0.1160  0.0026  0.6963  -11.7989   0.0000   0.2926
  13.600   1.8925   0.01283   0.00845  -0.1154  0.0026  0.6966  -11.9433   0.0000   0.2918
  13.700   1.8996   0.01296   0.00858  -0.1148  0.0026  0.6968  -12.0883   0.0000   0.2911
  13.800   1.9067   0.01310   0.00872  -0.1142  0.0026  0.6969  -12.2339   0.0000   0.2904
  13.900   1.9138   0.01323   0.00885  -0.1137  0.0026  0.6971  -12.3801   0.0000   0.2897
  14.000   1.9207   0.01338   0.00900  -0.1131  0.0026  0.6972  -12.5261   0.0000   0.2890
  14.100   1.9277   0.01352   0.00914  -0.1125  0.0026  0.6973  -12.6732   0.0000   0.2883
  14.200   1.9347   0.01367   0.00929  -0.1119  0.0026  0.6974  -12.8207   0.0000   0.2875
  14.300   1.9416   0.01382   0.00944  -0.1113  0.0026  0.6974  -12.9686   0.0000   0.2869
  14.400   1.9484   0.01398   0.00960  -0.1107  0.0026  0.6975  -13.1161   0.0000   0.2861
  14.500   1.9552   0.01414   0.00976  -0.1101  0.0026  0.6976  -13.2644   0.0000   0.2855
  14.600   1.9619   0.01430   0.00992  -0.1096  0.0026  0.6976  -13.4133   0.0000   0.2848
  14.700   1.9686   0.01447   0.01009  -0.1090  0.0025  0.6978  -13.5626   0.0000   0.2841
  14.800   1.9753   0.01464   0.01026  -0.1084  0.0025  0.6983  -13.7122   0.0000   0.2834
  14.900   1.9817   0.01482   0.01044  -0.1078  0.0025  0.6989  -13.8604   0.0000   0.2827
  15.000   1.9882   0.01500   0.01062  -0.1071  0.0025  0.6997  -14.0096   0.0000   0.2820
  15.100   1.9945   0.01519   0.01082  -0.1065  0.0025  0.7004  -14.1579   0.0000   0.2813
  15.200   2.0007   0.01539   0.01102  -0.1059  0.0024  0.7012  -14.3067   0.0000   0.2806
  15.300   2.0068   0.01559   0.01123  -0.1052  0.0024  0.7019  -14.4549   0.0000   0.2799
  15.400   2.0128   0.01581   0.01144  -0.1046  0.0023  0.7026  -14.6020   0.0000   0.2793
  15.500   2.0186   0.01603   0.01166  -0.1039  0.0023  0.7032  -14.7491   0.0000   0.2786
  15.600   2.0242   0.01626   0.01190  -0.1032  0.0023  0.7038  -14.8944   0.0000   0.2779
  15.700   2.0300   0.01649   0.01213  -0.1025  0.0022  0.7044  -15.0420   0.0000   0.2772
  15.800   2.0357   0.01672   0.01237  -0.1018  0.0022  0.7049  -15.1893   0.0000   0.2765
  15.900   2.0413   0.01696   0.01261  -0.1011  0.0021  0.7054  -15.3368   0.0000   0.2758
  16.000   2.0471   0.01720   0.01285  -0.1005  0.0021  0.7058  -15.4864   0.0000   0.2752
  16.100   2.0526   0.01745   0.01310  -0.0998  0.0020  0.7062  -15.6343   0.0000   0.2745
  16.200   2.0582   0.01769   0.01335  -0.0991  0.0020  0.7066  -15.7827   0.0000   0.2738
  16.300   2.0636   0.01794   0.01359  -0.0984  0.0020  0.7069  -15.9316   0.0000   0.2731
  16.400   2.0689   0.01819   0.01386  -0.0977  0.0019  0.7072  -16.0792   0.0000   0.2725
  16.500   2.0745   0.01845   0.01411  -0.0971  0.0019  0.7074  -16.2299   0.0000   0.2718
  16.600   2.0799   0.01871   0.01438  -0.0964  0.0018  0.7076  -16.3798   0.0000   0.2712
  16.700   2.0851   0.01898   0.01465  -0.0958  0.0018  0.7078  -16.5289   0.0000   0.2705
  16.800   2.0906   0.01924   0.01492  -0.0951  0.0018  0.7079  -16.6810   0.0000   0.2699
  16.900   2.0958   0.01952   0.01520  -0.0945  0.0017  0.7081  -16.8306   0.0000   0.2692
  17.000   2.1009   0.01981   0.01549  -0.0938  0.0017  0.7082  -16.9802   0.0000   0.2686
  17.100   2.1062   0.02008   0.01577  -0.0931  0.0017  0.7083  -17.1319   0.0000   0.2679
  17.200   2.1109   0.02038   0.01607  -0.0924  0.0016  0.7084  -17.2792   0.0000   0.2673
  17.300   2.1158   0.02068   0.01637  -0.0917  0.0016  0.7084  -17.4277   0.0000   0.2666
  17.400   2.1209   0.02097   0.01666  -0.0911  0.0016  0.7085  -17.5795   0.0000   0.2660
  17.500   2.1255   0.02128   0.01698  -0.0904  0.0016  0.7086  -17.7276   0.0000   0.2653
  17.600   2.1303   0.02159   0.01730  -0.0897  0.0016  0.7086  -17.8779   0.0000   0.2647
  17.700   2.1353   0.02190   0.01761  -0.0891  0.0016  0.7087  -18.0312   0.0000   0.2641
  17.800   2.1398   0.02223   0.01795  -0.0884  0.0016  0.7087  -18.1795   0.0000   0.2634
  17.900   2.1444   0.02256   0.01828  -0.0877  0.0016  0.7088  -18.3295   0.0000   0.2628
  18.000   2.1493   0.02288   0.01861  -0.0871  0.0016  0.7088  -18.4827   0.0000   0.2622
  18.100   2.1535   0.02324   0.01897  -0.0864  0.0016  0.7088  -18.6301   0.0000   0.2616
  18.200   2.1577   0.02359   0.01933  -0.0857  0.0016  0.7089  -18.7781   0.0000   0.2609
  18.300   2.1622   0.02393   0.01967  -0.0851  0.0016  0.7089  -18.9284   0.0000   0.2603
  18.400   2.1659   0.02431   0.02006  -0.0843  0.0015  0.7090  -19.0723   0.0000   0.2597
  18.500   2.1699   0.02469   0.02044  -0.0837  0.0015  0.7094  -19.2200   0.0000   0.2590
  18.600   2.1743   0.02505   0.02081  -0.0830  0.0015  0.7098  -19.3709   0.0000   0.2584
  18.700   2.1779   0.02546   0.02123  -0.0823  0.0015  0.7102  -19.5148   0.0000   0.2578
  18.800   2.1818   0.02586   0.02163  -0.0817  0.0015  0.7107  -19.6632   0.0000   0.2572
  18.900   2.1860   0.02625   0.02202  -0.0810  0.0015  0.7112  -19.8141   0.0000   0.2566
  19.000   2.1894   0.02669   0.02247  -0.0803  0.0015  0.7118  -19.9573   0.0000   0.2560
  19.100   2.1933   0.02711   0.02290  -0.0797  0.0015  0.7124  -20.1059   0.0000   0.2554
  19.200   2.1973   0.02752   0.02332  -0.0791  0.0015  0.7130  -20.2626   0.0000   0.2548
  19.300   2.2005   0.02800   0.02381  -0.0784  0.0015  0.7135  -20.4114   0.0000   0.2542
  19.400   2.2042   0.02844   0.02425  -0.0778  0.0015  0.7141  -20.5668   0.0000   0.2536
  19.500   2.2078   0.02889   0.02471  -0.0772  0.0015  0.7146  -20.7209   0.0000   0.2531
  19.600   2.2105   0.02939   0.02522  -0.0765  0.0015  0.7151  -20.8662   0.0000   0.2524
  19.700   2.2139   0.02985   0.02569  -0.0759  0.0015  0.7155  -21.0200   0.0000   0.2519
  19.800   2.2170   0.03035   0.02620  -0.0753  0.0015  0.7160  -21.1703   0.0000   0.2513
  19.900   2.2198   0.03089   0.02674  -0.0746  0.0015  0.7164  -21.3172   0.0000   0.2507
  20.000   2.2233   0.03137   0.02723  -0.0741  0.0015  0.7168  -21.4724   0.0000   0.2501


