xflr5 v6.32

 Calculated polar for: foil1 modified

 1 1 Reynolds number fixed          Mach number fixed         

 xtrf =   1.000 (top)        1.000 (bottom)
 Mach =   0.000     Re =     0.100 e 6     Ncrit =   9.000

  alpha     CL        CD       CDp       Cm    Top Xtr Bot Xtr   Cpmin    Chinge    XCp    
 ------- -------- --------- --------- -------- ------- ------- -------- --------- ---------
 -14.800  -0.2819   0.14170   0.13720  -0.0360  1.0000  0.0789  -0.9834   0.0000   0.1096
 -14.700  -0.2823   0.14113   0.13663  -0.0357  1.0000  0.0798  -0.9833   0.0000   0.1107
 -14.600  -0.2833   0.14059   0.13610  -0.0356  1.0000  0.0807  -0.9880   0.0000   0.1117
 -14.500  -0.2853   0.14013   0.13565  -0.0356  1.0000  0.0815  -1.0003   0.0000   0.1126
 -14.400  -0.2891   0.13982   0.13535  -0.0359  1.0000  0.0822  -1.0243   0.0000   0.1134
 -14.300  -0.2945   0.13970   0.13524  -0.0363  1.0000  0.0826  -1.0582   0.0000   0.1144
 -14.200  -0.3011   0.13970   0.13526  -0.0369  1.0000  0.0828  -1.0974   0.0000   0.1156
 -14.100  -0.2935   0.13793   0.13349  -0.0357  1.0000  0.0833  -1.0489   0.0000   0.1163
 -14.000  -0.2899   0.13693   0.13250  -0.0350  1.0000  0.0841  -1.0206   0.0000   0.1174
 -13.900  -0.2885   0.13619   0.13176  -0.0345  1.0000  0.0849  -1.0065   0.0000   0.1186
 -13.800  -0.2882   0.13555   0.13113  -0.0342  1.0000  0.0857  -1.0026   0.0000   0.1196
 -13.700  -0.2887   0.13494   0.13053  -0.0340  1.0000  0.0867  -1.0053   0.0000   0.1207
 -13.600  -0.2901   0.13437   0.12996  -0.0339  1.0000  0.0877  -1.0143   0.0000   0.1216
 -13.500  -0.2932   0.13391   0.12951  -0.0340  1.0000  0.0887  -1.0340   0.0000   0.1224
 -13.400  -0.2988   0.13363   0.12925  -0.0345  1.0000  0.0894  -1.0684   0.0000   0.1233
 -13.300  -0.3063   0.13353   0.12916  -0.0351  1.0000  0.0897  -1.1114   0.0000   0.1243
 -13.200  -0.3064   0.13259   0.12824  -0.0349  1.0000  0.0901  -1.1143   0.0000   0.1251
 -13.100  -0.2987   0.13115   0.12679  -0.0337  1.0000  0.0909  -1.0697   0.0000   0.1261
 -13.000  -0.2962   0.13033   0.12597  -0.0331  1.0000  0.0918  -1.0530   0.0000   0.1273
 -12.900  -0.2956   0.12965   0.12530  -0.0327  1.0000  0.0929  -1.0473   0.0000   0.1284
 -12.800  -0.2963   0.12902   0.12468  -0.0325  1.0000  0.0941  -1.0501   0.0000   0.1294
 -12.700  -0.2988   0.12845   0.12412  -0.0326  1.0000  0.0953  -1.0636   0.0000   0.1303
 -12.600  -0.3044   0.12805   0.12373  -0.0330  1.0000  0.0963  -1.0946   0.0000   0.1311
 -12.500  -0.3127   0.12779   0.12348  -0.0337  1.0000  0.0968  -1.1392   0.0000   0.1320
 -12.400  -0.3219   0.12748   0.12318  -0.0345  1.0000  0.0971  -1.1900   0.0000   0.1326
 -12.300  -0.3063   0.12563   0.12135  -0.0324  1.0000  0.0984  -1.1032   0.0000   0.1341
 -12.200  -0.3036   0.12485   0.12057  -0.0317  1.0000  0.0997  -1.0845   0.0000   0.1353
 -12.100  -0.3039   0.12419   0.11992  -0.0314  1.0000  0.1011  -1.0831   0.0000   0.1364
 -12.000  -0.3067   0.12358   0.11931  -0.0315  1.0000  0.1025  -1.0955   0.0000   0.1374
 -11.900  -0.3130   0.12310   0.11885  -0.0319  1.0000  0.1037  -1.1277   0.0000   0.1382
 -11.800  -0.3224   0.12267   0.11843  -0.0327  1.0000  0.1043  -1.1767   0.0000   0.1387
 -11.700  -0.3330   0.12221   0.11798  -0.0337  1.0000  0.1046  -1.2319   0.0000   0.1390
 -11.600  -0.3156   0.12059   0.11636  -0.0313  1.0000  0.1061  -1.1363   0.0000   0.1411
 -11.500  -0.3132   0.11982   0.11561  -0.0307  1.0000  0.1075  -1.1193   0.0000   0.1425
 -11.400  -0.3140   0.11914   0.11492  -0.0304  1.0000  0.1089  -1.1199   0.0000   0.1436
 -11.300  -0.3179   0.11847   0.11426  -0.0306  1.0000  0.1104  -1.1367   0.0000   0.1444
 -11.200  -0.3266   0.11788   0.11368  -0.0313  1.0000  0.1116  -1.1792   0.0000   0.1449
 -11.100  -0.3387   0.11730   0.11311  -0.0324  1.0000  0.1121  -1.2388   0.0000   0.1451
 -10.700  -0.4269   0.12216   0.11725  -0.0413  1.0000  0.1103  -1.6122   0.0000   0.1382
 -10.600  -0.4374   0.12105   0.11618  -0.0418  1.0000  0.1115  -1.6602   0.0000   0.1399
 -10.500  -0.4514   0.11984   0.11501  -0.0426  1.0000  0.1121  -1.7256   0.0000   0.1415
 -10.300  -0.4391   0.11785   0.11303  -0.0400  1.0000  0.1144  -1.6453   0.0000   0.1448
 -10.200  -0.4386   0.11701   0.11219  -0.0392  1.0000  0.1159  -1.6322   0.0000   0.1465
 -10.100  -0.4422   0.11603   0.11124  -0.0390  1.0000  0.1175  -1.6412   0.0000   0.1482
 -10.000  -0.4519   0.11486   0.11011  -0.0393  1.0000  0.1191  -1.6804   0.0000   0.1497
  -9.900  -0.4676   0.11351   0.10881  -0.0403  1.0000  0.1199  -1.7493   0.0000   0.1511
  -9.800  -0.4840   0.11206   0.10742  -0.0413  1.0000  0.1202  -1.8201   0.0000   0.1525
  -8.600  -0.5379   0.09836   0.09401  -0.0367  1.0000  0.1365  -1.9118   0.0000   0.1720
  -8.500  -0.5562   0.09671   0.09241  -0.0372  1.0000  0.1366  -1.9706   0.0000   0.1739
  -8.400  -0.5729   0.09536   0.09109  -0.0370  1.0000  0.1367  -2.0177   0.0000   0.1765
  -8.300  -0.5886   0.09422   0.08997  -0.0364  1.0000  0.1367  -2.0571   0.0000   0.1796
  -8.200  -0.6044   0.09287   0.08865  -0.0363  1.0000  0.1367  -2.1001   0.0000   0.1816
  -8.100  -0.6207   0.09114   0.08692  -0.0371  1.0000  0.1368  -2.1521   0.0000   0.1821
  -5.300  -0.5415   0.03870   0.03054  -0.0480  1.0000  0.0690  -2.7860   0.0000   0.1546
  -5.200  -0.5321   0.03775   0.02954  -0.0480  1.0000  0.0683  -2.7625   0.0000   0.1530
  -5.100  -0.5220   0.03680   0.02849  -0.0481  1.0000  0.0674  -2.7466   0.0000   0.1511
  -5.000  -0.5115   0.03585   0.02738  -0.0482  1.0000  0.0665  -2.7373   0.0000   0.1490
  -4.900  -0.5008   0.03501   0.02637  -0.0482  1.0000  0.0661  -2.7255   0.0000   0.1469
  -4.800  -0.4905   0.03430   0.02553  -0.0483  1.0000  0.0662  -2.7052   0.0000   0.1448
  -4.700  -0.4803   0.03367   0.02478  -0.0483  1.0000  0.0666  -2.6809   0.0000   0.1426
  -4.600  -0.4701   0.03308   0.02406  -0.0483  1.0000  0.0671  -2.6561   0.0000   0.1404
  -4.500  -0.4598   0.03251   0.02337  -0.0483  1.0000  0.0676  -2.6319   0.0000   0.1382
  -4.400  -0.4496   0.03196   0.02270  -0.0482  1.0000  0.0680  -2.6081   0.0000   0.1359
  -4.300  -0.4395   0.03144   0.02208  -0.0481  1.0000  0.0683  -2.5837   0.0000   0.1337
  -4.200  -0.4294   0.03094   0.02149  -0.0479  1.0000  0.0685  -2.5588   0.0000   0.1316
  -4.100  -0.4194   0.03047   0.02095  -0.0477  1.0000  0.0688  -2.5334   0.0000   0.1294
  -4.000  -0.4095   0.03006   0.02043  -0.0475  1.0000  0.0692  -2.5076   0.0000   0.1271
  -3.900  -0.3997   0.02962   0.01996  -0.0473  1.0000  0.0698  -2.4769   0.0000   0.1248
  -3.800  -0.3904   0.02919   0.01959  -0.0471  1.0000  0.0707  -2.4367   0.0000   0.1224
  -3.700  -0.3810   0.02885   0.01928  -0.0469  1.0000  0.0718  -2.3970   0.0000   0.1199
  -3.600  -0.3678   0.02856   0.01900  -0.0474  0.9992  0.0734  -2.3523   0.0000   0.1142
  -3.500  -0.3479   0.02835   0.01873  -0.0490  0.9969  0.0766  -2.2969   0.0000   0.1019
  -3.400  -0.3304   0.02810   0.01858  -0.0504  0.9947  0.0804  -2.2309   0.0000   0.0900
  -3.300  -0.3133   0.02784   0.01835  -0.0517  0.9927  0.0843  -2.1763   0.0000   0.0775
  -3.200  -0.2961   0.02762   0.01817  -0.0529  0.9907  0.0889  -2.1373   0.0000   0.0635
  -3.100  -0.2794   0.02734   0.01799  -0.0543  0.9888  0.0949  -2.0965   0.0000   0.0479
  -3.000  -0.2627   0.02710   0.01781  -0.0556  0.9867  0.1043  -2.0579   0.0000   0.0303
  -2.900  -0.2437   0.02674   0.01760  -0.0574  0.9849  0.1190  -2.0181   0.0000   0.0058
  -2.800  -0.2223   0.02592   0.01720  -0.0601  0.9833  0.1651  -1.9906   0.0000  -0.0293
  -2.600  -0.2156   0.02671   0.02057  -0.0538  0.9793  0.6907  -1.9547   0.0000  -0.0085
  -2.500  -0.2108   0.02762   0.02142  -0.0516  0.9767  0.7103  -1.9105   0.0000  -0.0034
  -2.400  -0.2066   0.02844   0.02221  -0.0490  0.9742  0.7240  -1.8650   0.0000   0.0041
  -2.300  -0.2035   0.02904   0.02278  -0.0465  0.9716  0.7357  -1.8226   0.0000   0.0126
  -2.200  -0.1996   0.02960   0.02331  -0.0442  0.9691  0.7474  -1.7773   0.0000   0.0200
  -2.100  -0.1960   0.03008   0.02377  -0.0418  0.9667  0.7588  -1.7327   0.0000   0.0280
  -2.000  -0.1930   0.03047   0.02413  -0.0394  0.9641  0.7699  -1.6898   0.0000   0.0373
  -1.900  -0.1897   0.03083   0.02447  -0.0370  0.9616  0.7816  -1.6457   0.0000   0.0468
  -1.800  -0.1881   0.03105   0.02468  -0.0343  0.9589  0.7929  -1.6072   0.0000   0.0595
  -1.700  -0.1861   0.03126   0.02488  -0.0316  0.9566  0.8053  -1.5667   0.0000   0.0722
  -1.600  -0.1859   0.03135   0.02495  -0.0287  0.9538  0.8174  -1.5323   0.0000   0.0882
  -1.500  -0.1846   0.03142   0.02501  -0.0258  0.9513  0.8312  -1.4944   0.0000   0.1027
  -1.400  -0.1838   0.03142   0.02498  -0.0232  0.9485  0.8448  -1.4591   0.0000   0.1168
  -1.300  -0.1833   0.03131   0.02486  -0.0203  0.9460  0.8570  -1.4243   0.0000   0.1323
  -1.200  -0.1828   0.03116   0.02469  -0.0176  0.9432  0.8681  -1.3904   0.0000   0.1470
  -1.100  -0.1806   0.03100   0.02450  -0.0154  0.9405  0.8785  -1.3526   0.0000   0.1583
  -1.000  -0.1760   0.03086   0.02433  -0.0138  0.9379  0.8880  -1.3088   0.0000   0.1654
  -0.900  -0.1702   0.03076   0.02418  -0.0128  0.9350  0.8956  -1.2632   0.0000   0.1687
  -0.800  -0.1596   0.03070   0.02407  -0.0126  0.9327  0.9008  -1.2042   0.0000   0.1650
  -0.700  -0.1507   0.03067   0.02398  -0.0128  0.9294  0.9040  -1.1527   0.0000   0.1593
  -0.600  -0.1369   0.03068   0.02393  -0.0135  0.9269  0.9064  -1.0872   0.0000   0.1452
  -0.500  -0.1283   0.03063   0.02383  -0.0135  0.9237  0.9088  -1.0369   0.0000   0.1392
  -0.400  -0.1143   0.03069   0.02383  -0.0145  0.9211  0.9112  -0.9730   0.0000   0.1174
  -0.300  -0.1020   0.03073   0.02382  -0.0152  0.9181  0.9133  -0.9143   0.0000   0.0952
  -0.200  -0.0914   0.03071   0.02375  -0.0154  0.9151  0.9154  -0.8602   0.0000   0.0751
  -0.100  -0.0747   0.03082   0.02380  -0.0168  0.9128  0.9173  -0.7913   0.0000   0.0185
   0.000  -0.0670   0.03079   0.02374  -0.0167  0.9091  0.9194  -0.7494   0.0000  -0.0060
   0.100  -0.0509   0.03090   0.02380  -0.0181  0.9066  0.9212  -0.6900   0.0000  -0.1129
   0.200  -0.0420   0.03088   0.02375  -0.0181  0.9032  0.9230  -0.6476   0.0000  -0.1872
   0.300  -0.0287   0.03093   0.02375  -0.0188  0.9003  0.9248  -0.5959   0.0000  -0.4148
   0.400  -0.0145   0.03102   0.02380  -0.0198  0.8976  0.9266  -0.5430   0.0000  -1.1296
   0.500  -0.0044   0.03106   0.02381  -0.0202  0.8942  0.9284  -0.4999   0.0000  -4.3856
   0.600   0.0114   0.03114   0.02386  -0.0213  0.8918  0.9299  -0.4448   0.0000   2.1203
   0.700   0.0195   0.03115   0.02384  -0.0212  0.8881  0.9317  -0.4070   0.0000   1.3366
   0.800   0.0331   0.03122   0.02389  -0.0221  0.8853  0.9333  -0.4013   0.0000   0.9135
   0.900   0.0482   0.03133   0.02396  -0.0232  0.8827  0.9349  -0.4097   0.0000   0.7274
   1.000   0.0572   0.03137   0.02398  -0.0233  0.8789  0.9364  -0.4147   0.0000   0.6540
   1.100   0.0733   0.03145   0.02403  -0.0245  0.8765  0.9378  -0.4241   0.0000   0.5801
   1.200   0.0821   0.03149   0.02406  -0.0245  0.8726  0.9394  -0.4292   0.0000   0.5446
   1.300   0.0963   0.03157   0.02411  -0.0255  0.8696  0.9409  -0.4375   0.0000   0.5100
   1.400   0.1134   0.03169   0.02420  -0.0269  0.8673  0.9423  -0.4474   0.0000   0.4823
   1.500   0.1203   0.03172   0.02423  -0.0266  0.8629  0.9439  -0.4514   0.0000   0.4665
   1.600   0.1368   0.03180   0.02429  -0.0278  0.8605  0.9452  -0.4620   0.0000   0.4487
   1.700   0.1461   0.03187   0.02435  -0.0280  0.8566  0.9468  -0.4683   0.0000   0.4366
   1.800   0.1598   0.03195   0.02442  -0.0288  0.8535  0.9481  -0.4772   0.0000   0.4254
   1.900   0.1782   0.03205   0.02450  -0.0304  0.8515  0.9493  -0.4891   0.0000   0.4154
   2.100   0.2003   0.03218   0.02463  -0.0311  0.8443  0.9521  -0.5040   0.0000   0.4003
   2.200   0.2121   0.03227   0.02471  -0.0317  0.8407  0.9536  -0.5119   0.0000   0.3940
   2.300   0.2240   0.03235   0.02479  -0.0322  0.8371  0.9550  -0.5206   0.0000   0.3884
   2.400   0.2420   0.03239   0.02484  -0.0336  0.8349  0.9563  -0.5337   0.0000   0.3834
   2.500   0.2495   0.03249   0.02494  -0.0334  0.8302  0.9579  -0.5399   0.0000   0.3786
   2.600   0.2652   0.03254   0.02499  -0.0345  0.8274  0.9592  -0.5515   0.0000   0.3746
   2.700   0.2845   0.03257   0.02502  -0.0360  0.8256  0.9603  -0.5656   0.0000   0.3712
   2.800   0.2899   0.03270   0.02517  -0.0357  0.8201  0.9619  -0.5705   0.0000   0.3674
   2.900   0.3077   0.03272   0.02519  -0.0370  0.8178  0.9631  -0.5845   0.0000   0.3646
   3.000   0.3176   0.03283   0.02532  -0.0372  0.8135  0.9646  -0.5934   0.0000   0.3615
   3.100   0.3320   0.03288   0.02538  -0.0381  0.8102  0.9659  -0.6057   0.0000   0.3589
   3.200   0.3512   0.03286   0.02537  -0.0395  0.8082  0.9671  -0.6214   0.0000   0.3568
   3.300   0.3584   0.03301   0.02554  -0.0394  0.8028  0.9688  -0.6285   0.0000   0.3542
   3.400   0.3758   0.03299   0.02554  -0.0406  0.8002  0.9701  -0.6431   0.0000   0.3523
   3.500   0.3963   0.03292   0.02549  -0.0422  0.7986  0.9713  -0.6602   0.0000   0.3507
   3.700   0.4213   0.03304   0.02566  -0.0434  0.7903  0.9744  -0.6850   0.0000   0.3469
   3.800   0.4307   0.03318   0.02582  -0.0435  0.7853  0.9763  -0.6952   0.0000   0.3450
   3.900   0.4477   0.03313   0.02580  -0.0447  0.7822  0.9777  -0.7117   0.0000   0.3437
   4.000   0.4687   0.03297   0.02567  -0.0462  0.7804  0.9789  -0.7338   0.0000   0.3425
   4.100   0.4760   0.03315   0.02589  -0.0462  0.7743  0.9810  -0.7457   0.0000   0.3408
   4.200   0.4957   0.03299   0.02576  -0.0476  0.7719  0.9825  -0.7712   0.0000   0.3397
   4.300   0.5152   0.03283   0.02565  -0.0489  0.7696  0.9840  -0.7984   0.0000   0.3386
   4.400   0.5232   0.03298   0.02583  -0.0489  0.7635  0.9869  -0.8139   0.0000   0.3371
   4.500   0.5440   0.03273   0.02562  -0.0504  0.7616  0.9888  -0.8468   0.0000   0.3361
   4.700   0.5690   0.03259   0.02556  -0.0511  0.7528  1.0000  -0.8965   0.0000   0.3332
   4.800   0.5907   0.03223   0.02524  -0.0525  0.7513  1.0000  -0.9363   0.0000   0.3323
   4.900   0.5951   0.03246   0.02551  -0.0520  0.7443  1.0000  -0.9536   0.0000   0.3306
   5.000   0.6156   0.03208   0.02519  -0.0532  0.7424  1.0000  -0.9975   0.0000   0.3296
   5.100   0.6365   0.03167   0.02483  -0.0544  0.7406  1.0000  -1.0461   0.0000   0.3286
   5.200   0.6420   0.03186   0.02506  -0.0540  0.7337  1.0000  -1.0698   0.0000   0.3271
   5.300   0.6637   0.03135   0.02460  -0.0552  0.7320  1.0000  -1.1223   0.0000   0.3261
   5.500   0.6907   0.03100   0.02436  -0.0559  0.7232  1.0000  -1.2151   0.0000   0.3237
   5.600   0.7130   0.03035   0.02378  -0.0570  0.7217  1.0000  -1.2825   0.0000   0.3227
   5.900   0.7654   0.02881   0.02243  -0.0587  0.7116  1.0000  -1.4677   0.0000   0.3192
   6.100   0.7979   0.02758   0.02133  -0.0592  0.7026  1.0000  -1.6137   0.0000   0.3165
   6.200   0.8252   0.02621   0.02005  -0.0603  0.7012  1.0000  -1.7214   0.0000   0.3154
   6.400   0.8624   0.02459   0.01857  -0.0611  0.6913  1.0000  -1.8887   0.0000   0.3129
   6.500   0.8738   0.02422   0.01826  -0.0608  0.6839  1.0000  -1.9541   0.0000   0.3115
   6.600   0.9027   0.02290   0.01702  -0.0623  0.6802  1.0000  -2.0810   0.0000   0.3109
   6.700   0.9135   0.02257   0.01676  -0.0619  0.6717  1.0000  -2.1492   0.0000   0.3096
   6.800   0.9286   0.02204   0.01629  -0.0620  0.6635  1.0000  -2.2326   0.0000   0.3085
   6.900   0.9461   0.02141   0.01571  -0.0623  0.6549  1.0000  -2.3252   0.0000   0.3075
   7.000   0.9616   0.02091   0.01525  -0.0625  0.6447  1.0000  -2.4119   0.0000   0.3065
   7.100   0.9746   0.02055   0.01494  -0.0624  0.6331  1.0000  -2.4906   0.0000   0.3054
   7.200   0.9867   0.02026   0.01467  -0.0622  0.6199  1.0000  -2.5668   0.0000   0.3043
   7.300   1.0011   0.01991   0.01434  -0.0622  0.6051  1.0000  -2.6518   0.0000   0.3033
   7.400   1.0108   0.01979   0.01422  -0.0618  0.5887  1.0000  -2.7211   0.0000   0.3021
   7.500   1.0232   0.01961   0.01400  -0.0616  0.5700  1.0000  -2.8001   0.0000   0.3011
   7.600   1.0311   0.01963   0.01399  -0.0610  0.5500  1.0000  -2.8639   0.0000   0.2999
   7.700   1.0391   0.01969   0.01399  -0.0603  0.5280  1.0000  -2.9280   0.0000   0.2987
   7.800   1.0465   0.01982   0.01402  -0.0596  0.5037  1.0000  -2.9954   0.0000   0.2974
   7.900   1.0521   0.02006   0.01415  -0.0588  0.4776  1.0000  -3.0563   0.0000   0.2962
   8.000   1.0565   0.02038   0.01434  -0.0578  0.4493  1.0000  -3.1124   0.0000   0.2948
   8.100   1.0595   0.02081   0.01462  -0.0566  0.4193  1.0000  -3.1634   0.0000   0.2935
   8.200   1.0611   0.02134   0.01496  -0.0554  0.3879  1.0000  -3.2087   0.0000   0.2921
   8.300   1.0615   0.02197   0.01539  -0.0541  0.3551  1.0000  -3.2483   0.0000   0.2907
   8.400   1.0607   0.02271   0.01590  -0.0527  0.3214  1.0000  -3.2832   0.0000   0.2893
   8.500   1.0593   0.02353   0.01649  -0.0514  0.2877  1.0000  -3.3142   0.0000   0.2879
   8.600   1.0576   0.02444   0.01715  -0.0501  0.2558  1.0000  -3.3426   0.0000   0.2866
   8.700   1.0562   0.02539   0.01786  -0.0488  0.2268  1.0000  -3.3706   0.0000   0.2853
   8.800   1.0555   0.02636   0.01859  -0.0477  0.2024  1.0000  -3.3995   0.0000   0.2841
   8.900   1.0558   0.02729   0.01933  -0.0468  0.1820  1.0000  -3.4310   0.0000   0.2830
   9.000   1.0571   0.02819   0.02006  -0.0459  0.1657  1.0000  -3.4651   0.0000   0.2820
   9.100   1.0591   0.02905   0.02077  -0.0451  0.1527  1.0000  -3.5021   0.0000   0.2811
   9.200   1.0622   0.02987   0.02149  -0.0445  0.1413  1.0000  -3.5408   0.0000   0.2802
   9.300   1.0659   0.03066   0.02219  -0.0439  0.1316  1.0000  -3.5819   0.0000   0.2793
   9.400   1.0704   0.03144   0.02288  -0.0433  0.1234  1.0000  -3.6252   0.0000   0.2785
   9.500   1.0756   0.03219   0.02357  -0.0429  0.1162  1.0000  -3.6703   0.0000   0.2778
   9.600   1.0817   0.03292   0.02425  -0.0425  0.1098  1.0000  -3.7179   0.0000   0.2771
   9.700   1.0885   0.03364   0.02489  -0.0422  0.1041  1.0000  -3.7690   0.0000   0.2764
   9.800   1.0962   0.03435   0.02547  -0.0421  0.0989  1.0000  -3.8263   0.0000   0.2759
   9.900   1.1042   0.03500   0.02616  -0.0419  0.0938  1.0000  -3.8765   0.0000   0.2753
  10.000   1.1138   0.03570   0.02683  -0.0418  0.0893  1.0000  -3.9328   0.0000   0.2748
  10.100   1.1250   0.03638   0.02737  -0.0420  0.0853  1.0000  -4.0026   0.0000   0.2745
  10.200   1.1342   0.03705   0.02812  -0.0419  0.0815  1.0000  -4.0623   0.0000   0.2740
  10.300   1.1479   0.03778   0.02878  -0.0423  0.0781  1.0000  -4.1447   0.0000   0.2738
  10.400   1.1596   0.03848   0.02954  -0.0425  0.0750  1.0000  -4.2144   0.0000   0.2734
  10.500   1.1740   0.03927   0.03027  -0.0430  0.0721  1.0000  -4.2998   0.0000   0.2733
  10.600   1.1847   0.04001   0.03109  -0.0431  0.0694  1.0000  -4.3655   0.0000   0.2729
  10.700   1.2027   0.04087   0.03184  -0.0442  0.0668  1.0000  -4.4688   0.0000   0.2731
  10.800   1.2140   0.04181   0.03296  -0.0442  0.0650  1.0000  -4.5205   0.0000   0.2727
  10.900   1.2309   0.04278   0.03396  -0.0450  0.0631  1.0000  -4.6038   0.0000   0.2728
  11.000   1.2542   0.04403   0.03513  -0.0468  0.0612  1.0000  -4.7165   0.0000   0.2734
  11.100   1.2602   0.04506   0.03641  -0.0463  0.0601  1.0000  -4.7450   0.0000   0.2726
  11.200   1.2681   0.04609   0.03759  -0.0460  0.0589  1.0000  -4.7895   0.0000   0.2721
  11.300   1.2797   0.04702   0.03855  -0.0464  0.0574  1.0000  -4.8637   0.0000   0.2719
  11.400   1.2991   0.04831   0.03975  -0.0479  0.0559  1.0000  -4.9732   0.0000   0.2724
  11.500   1.3004   0.04940   0.04108  -0.0469  0.0553  1.0000  -4.9839   0.0000   0.2714
  11.600   1.3041   0.05064   0.04253  -0.0461  0.0548  1.0000  -5.0020   0.0000   0.2706
  11.700   1.3085   0.05196   0.04405  -0.0455  0.0544  1.0000  -5.0312   0.0000   0.2699
  11.800   1.3122   0.05331   0.04557  -0.0449  0.0540  1.0000  -5.0586   0.0000   0.2692
  11.900   1.3150   0.05467   0.04711  -0.0442  0.0537  1.0000  -5.0829   0.0000   0.2684
  12.000   1.3169   0.05606   0.04866  -0.0434  0.0535  1.0000  -5.1035   0.0000   0.2677
  12.100   1.3179   0.05747   0.05023  -0.0425  0.0534  1.0000  -5.1199   0.0000   0.2669
  12.200   1.3177   0.05890   0.05183  -0.0416  0.0533  1.0000  -5.1315   0.0000   0.2660
  12.300   1.3161   0.06036   0.05346  -0.0406  0.0532  1.0000  -5.1362   0.0000   0.2651
  12.400   1.3135   0.06182   0.05509  -0.0395  0.0532  1.0000  -5.1373   0.0000   0.2642
  12.500   1.3099   0.06330   0.05673  -0.0384  0.0532  1.0000  -5.1351   0.0000   0.2633
  12.600   1.3055   0.06480   0.05838  -0.0373  0.0532  1.0000  -5.1298   0.0000   0.2624
  12.700   1.3003   0.06633   0.06006  -0.0362  0.0532  1.0000  -5.1214   0.0000   0.2615
  12.800   1.2943   0.06789   0.06176  -0.0351  0.0533  1.0000  -5.1099   0.0000   0.2607
  12.900   1.2877   0.06949   0.06351  -0.0341  0.0533  1.0000  -5.0954   0.0000   0.2599
  13.000   1.2804   0.07114   0.06530  -0.0331  0.0534  1.0000  -5.0780   0.0000   0.2591
  13.100   1.2726   0.07284   0.06714  -0.0322  0.0535  1.0000  -5.0581   0.0000   0.2584
  13.200   1.2643   0.07460   0.06903  -0.0313  0.0536  1.0000  -5.0356   0.0000   0.2577
  13.300   1.2557   0.07643   0.07099  -0.0306  0.0537  1.0000  -5.0110   0.0000   0.2571
  13.400   1.2466   0.07832   0.07300  -0.0300  0.0538  1.0000  -4.9846   0.0000   0.2566
  13.500   1.2373   0.08026   0.07506  -0.0295  0.0540  1.0000  -4.9566   0.0000   0.2562
  13.600   1.2278   0.08227   0.07719  -0.0291  0.0541  1.0000  -4.9274   0.0000   0.2559
  13.700   1.2182   0.08435   0.07938  -0.0289  0.0543  1.0000  -4.8972   0.0000   0.2558
  13.800   1.2086   0.08650   0.08163  -0.0288  0.0545  1.0000  -4.8664   0.0000   0.2557
  13.900   1.1989   0.08870   0.08393  -0.0289  0.0546  1.0000  -4.8352   0.0000   0.2557
  14.000   1.1894   0.09096   0.08628  -0.0290  0.0548  1.0000  -4.8038   0.0000   0.2559
  14.100   1.1800   0.09328   0.08869  -0.0294  0.0550  1.0000  -4.7724   0.0000   0.2562
  14.200   1.1709   0.09566   0.09115  -0.0298  0.0552  1.0000  -4.7414   0.0000   0.2566
  14.300   1.1621   0.09809   0.09366  -0.0304  0.0553  1.0000  -4.7110   0.0000   0.2571
  14.400   1.1537   0.10055   0.09619  -0.0311  0.0555  1.0000  -4.6816   0.0000   0.2577
  14.500   1.1458   0.10304   0.09874  -0.0319  0.0556  1.0000  -4.6537   0.0000   0.2584
  14.600   1.1386   0.10554   0.10129  -0.0327  0.0558  1.0000  -4.6278   0.0000   0.2592
  14.700   1.1321   0.10805   0.10385  -0.0336  0.0559  1.0000  -4.6044   0.0000   0.2600
  14.800   1.1264   0.11054   0.10639  -0.0346  0.0560  1.0000  -4.5841   0.0000   0.2608
  16.000   0.9134   0.19965   0.19576  -0.0939  0.1171  1.0000  -2.0346   0.0000   0.3331
  16.100   0.9166   0.20124   0.19735  -0.0947  0.1155  1.0000  -2.0437   0.0000   0.3334
  16.200   0.9231   0.20269   0.19882  -0.0947  0.1142  1.0000  -2.0770   0.0000   0.3325
  16.300   0.9337   0.20415   0.20031  -0.0936  0.1133  1.0000  -2.1414   0.0000   0.3301
  16.400   0.9306   0.20647   0.20259  -0.0959  0.1125  1.0000  -2.0964   0.0000   0.3328
  16.500   0.9240   0.20840   0.20450  -0.0991  0.1104  1.0000  -2.0277   0.0000   0.3368
  16.600   0.9266   0.20996   0.20606  -0.1001  0.1086  1.0000  -2.0306   0.0000   0.3374
  16.700   0.9332   0.21135   0.20746  -0.1000  0.1070  1.0000  -2.0667   0.0000   0.3364
  16.800   0.9486   0.21298   0.20913  -0.0977  0.1058  1.0000  -2.1718   0.0000   0.3321
  16.900   0.9379   0.21503   0.21113  -0.1021  0.1050  1.0000  -2.0630   0.0000   0.3377
  17.000   0.9357   0.21672   0.21280  -0.1044  0.1028  1.0000  -2.0235   0.0000   0.3402
  17.100   0.9396   0.21813   0.21422  -0.1050  0.1009  1.0000  -2.0384   0.0000   0.3403
  17.200   0.9499   0.21953   0.21565  -0.1040  0.0994  1.0000  -2.1078   0.0000   0.3378
  17.300   0.9543   0.22158   0.21770  -0.1045  0.0986  1.0000  -2.1204   0.0000   0.3377
  17.400   0.9474   0.22319   0.21927  -0.1081  0.0973  1.0000  -2.0363   0.0000   0.3421
  17.500   0.9487   0.22478   0.22085  -0.1096  0.0954  1.0000  -2.0237   0.0000   0.3433
  17.600   0.9530   0.22622   0.22231  -0.1101  0.0939  1.0000  -2.0402   0.0000   0.3432
  17.700   0.9596   0.22772   0.22383  -0.1100  0.0929  1.0000  -2.0771   0.0000   0.3421
  17.800   0.9713   0.22992   0.22605  -0.1086  0.0922  1.0000  -2.1548   0.0000   0.3391
  17.900   0.9653   0.23141   0.22751  -0.1120  0.0916  1.0000  -2.0734   0.0000   0.3432
  18.000   0.9628   0.23299   0.22906  -0.1147  0.0900  1.0000  -2.0186   0.0000   0.3461
  18.100   0.9652   0.23452   0.23059  -0.1160  0.0886  1.0000  -2.0137   0.0000   0.3469
  18.200   0.9693   0.23599   0.23206  -0.1166  0.0874  1.0000  -2.0266   0.0000   0.3469
  18.300   0.9751   0.23748   0.23357  -0.1167  0.0864  1.0000  -2.0573   0.0000   0.3461
  18.400   0.9844   0.23953   0.23564  -0.1157  0.0857  1.0000  -2.1191   0.0000   0.3438
  18.500   0.9836   0.24119   0.23728  -0.1179  0.0852  1.0000  -2.0794   0.0000   0.3459
  18.600   0.9806   0.24261   0.23867  -0.1210  0.0840  1.0000  -2.0116   0.0000   0.3492
  18.700   0.9826   0.24413   0.24019  -0.1224  0.0826  1.0000  -1.9979   0.0000   0.3503
  18.800   0.9861   0.24561   0.24167  -0.1233  0.0814  1.0000  -2.0030   0.0000   0.3505
  18.900   0.9907   0.24706   0.24313  -0.1238  0.0805  1.0000  -2.0218   0.0000   0.3502
  19.000   0.9973   0.24872   0.24480  -0.1235  0.0797  1.0000  -2.0631   0.0000   0.3489
  19.100   1.0043   0.25099   0.24708  -0.1231  0.0791  1.0000  -2.1028   0.0000   0.3475
  19.200   1.0002   0.25205   0.24811  -0.1267  0.0785  1.0000  -2.0180   0.0000   0.3514
  19.300   1.0009   0.25352   0.24957  -0.1288  0.0770  1.0000  -1.9842   0.0000   0.3532
  19.400   1.0040   0.25495   0.25100  -0.1299  0.0757  1.0000  -1.9830   0.0000   0.3537
  19.500   1.0084   0.25633   0.25239  -0.1304  0.0745  1.0000  -2.0000   0.0000   0.3535
  19.600   1.0147   0.25791   0.25398  -0.1301  0.0736  1.0000  -2.0440   0.0000   0.3522
  19.700   1.0213   0.26016   0.25624  -0.1297  0.0730  1.0000  -2.0922   0.0000   0.3508
  19.800   1.0186   0.26117   0.25722  -0.1331  0.0724  1.0000  -2.0147   0.0000   0.3542
  19.900   1.0196   0.26259   0.25864  -0.1352  0.0711  1.0000  -1.9847   0.0000   0.3559
  20.000   1.0227   0.26401   0.26006  -0.1363  0.0699  1.0000  -1.9866   0.0000   0.3564


