xflr5 v6.32

 Calculated polar for: foil1 modified

 1 1 Reynolds number fixed          Mach number fixed         

 xtrf =   1.000 (top)        1.000 (bottom)
 Mach =   0.000     Re =    10.000 e 6     Ncrit =   9.000

  alpha     CL        CD       CDp       Cm    Top Xtr Bot Xtr   Cpmin    Chinge    XCp    
 ------- -------- --------- --------- -------- ------- ------- -------- --------- ---------
 -15.000  -1.1997   0.01577   0.01214  -0.0943  0.8787  0.0053  -16.4782   0.0000   0.1525
 -14.900  -1.1902   0.01553   0.01189  -0.0946  0.8776  0.0053  -16.3104   0.0000   0.1518
 -14.800  -1.1805   0.01530   0.01165  -0.0950  0.8764  0.0054  -16.1416   0.0000   0.1510
 -14.700  -1.1707   0.01507   0.01141  -0.0953  0.8754  0.0054  -15.9717   0.0000   0.1502
 -14.600  -1.1607   0.01485   0.01118  -0.0957  0.8747  0.0054  -15.8006   0.0000   0.1493
 -14.500  -1.1506   0.01463   0.01095  -0.0961  0.8739  0.0054  -15.6291   0.0000   0.1484
 -14.400  -1.1404   0.01442   0.01074  -0.0964  0.8730  0.0054  -15.4576   0.0000   0.1475
 -14.300  -1.1302   0.01423   0.01054  -0.0967  0.8721  0.0054  -15.2864   0.0000   0.1466
 -14.200  -1.1200   0.01405   0.01034  -0.0970  0.8711  0.0055  -15.1159   0.0000   0.1457
 -14.100  -1.1099   0.01388   0.01016  -0.0972  0.8701  0.0055  -14.9460   0.0000   0.1449
 -14.000  -1.0998   0.01371   0.00999  -0.0974  0.8691  0.0055  -14.7767   0.0000   0.1441
 -13.900  -1.0897   0.01356   0.00983  -0.0976  0.8681  0.0055  -14.6074   0.0000   0.1432
 -13.800  -1.0794   0.01340   0.00966  -0.0978  0.8674  0.0055  -14.4378   0.0000   0.1424
 -13.700  -1.0691   0.01325   0.00950  -0.0980  0.8667  0.0055  -14.2680   0.0000   0.1414
 -13.600  -1.0587   0.01310   0.00935  -0.0982  0.8660  0.0056  -14.0985   0.0000   0.1405
 -13.500  -1.0482   0.01295   0.00920  -0.0984  0.8653  0.0056  -13.9293   0.0000   0.1395
 -13.400  -1.0378   0.01281   0.00905  -0.0985  0.8645  0.0056  -13.7604   0.0000   0.1385
 -13.300  -1.0273   0.01267   0.00891  -0.0987  0.8636  0.0056  -13.5918   0.0000   0.1375
 -13.200  -1.0167   0.01254   0.00877  -0.0989  0.8627  0.0056  -13.4236   0.0000   0.1365
 -13.100  -1.0061   0.01241   0.00863  -0.0991  0.8618  0.0056  -13.2559   0.0000   0.1354
 -13.000  -0.9955   0.01228   0.00850  -0.0993  0.8608  0.0056  -13.0886   0.0000   0.1343
 -12.900  -0.9849   0.01216   0.00837  -0.0995  0.8598  0.0057  -12.9218   0.0000   0.1331
 -12.800  -0.9742   0.01203   0.00824  -0.0997  0.8591  0.0057  -12.7550   0.0000   0.1319
 -12.700  -0.9634   0.01191   0.00811  -0.0999  0.8585  0.0057  -12.5885   0.0000   0.1307
 -12.600  -0.9525   0.01179   0.00799  -0.1001  0.8578  0.0057  -12.4227   0.0000   0.1294
 -12.500  -0.9417   0.01167   0.00787  -0.1003  0.8570  0.0057  -12.2575   0.0000   0.1281
 -12.400  -0.9308   0.01155   0.00775  -0.1005  0.8562  0.0057  -12.0929   0.0000   0.1268
 -12.300  -0.9200   0.01144   0.00763  -0.1007  0.8554  0.0057  -11.9291   0.0000   0.1254
 -12.200  -0.9091   0.01133   0.00752  -0.1009  0.8545  0.0057  -11.7660   0.0000   0.1240
 -12.100  -0.8982   0.01122   0.00741  -0.1011  0.8536  0.0057  -11.6036   0.0000   0.1225
 -12.000  -0.8872   0.01112   0.00730  -0.1012  0.8527  0.0057  -11.4420   0.0000   0.1211
 -11.900  -0.8763   0.01101   0.00719  -0.1014  0.8517  0.0058  -11.2811   0.0000   0.1195
 -11.800  -0.8652   0.01091   0.00708  -0.1016  0.8510  0.0058  -11.1207   0.0000   0.1179
 -11.700  -0.8542   0.01080   0.00698  -0.1019  0.8505  0.0058  -10.9607   0.0000   0.1162
 -11.600  -0.8431   0.01070   0.00687  -0.1021  0.8499  0.0058  -10.8016   0.0000   0.1145
 -11.500  -0.8319   0.01060   0.00677  -0.1023  0.8491  0.0058  -10.6434   0.0000   0.1127
 -11.400  -0.8208   0.01050   0.00667  -0.1025  0.8484  0.0058  -10.4861   0.0000   0.1109
 -11.300  -0.8097   0.01040   0.00657  -0.1027  0.8475  0.0058  -10.3297   0.0000   0.1090
 -11.200  -0.7985   0.01031   0.00647  -0.1029  0.8466  0.0058  -10.1742   0.0000   0.1071
 -11.100  -0.7874   0.01021   0.00638  -0.1031  0.8457  0.0058  -10.0197   0.0000   0.1051
 -11.000  -0.7762   0.01012   0.00628  -0.1033  0.8446  0.0058  -9.8662   0.0000   0.1031
 -10.900  -0.7651   0.01003   0.00619  -0.1035  0.8436  0.0058  -9.7136   0.0000   0.1010
 -10.800  -0.7539   0.00994   0.00609  -0.1037  0.8426  0.0058  -9.5618   0.0000   0.0988
 -10.700  -0.7426   0.00985   0.00600  -0.1039  0.8420  0.0058  -9.4105   0.0000   0.0965
 -10.600  -0.7313   0.00976   0.00591  -0.1041  0.8413  0.0058  -9.2602   0.0000   0.0941
 -10.500  -0.7200   0.00967   0.00582  -0.1043  0.8405  0.0058  -9.1109   0.0000   0.0916
 -10.400  -0.7087   0.00958   0.00574  -0.1045  0.8396  0.0058  -8.9627   0.0000   0.0891
 -10.300  -0.6974   0.00950   0.00565  -0.1047  0.8386  0.0058  -8.8155   0.0000   0.0865
 -10.200  -0.6861   0.00941   0.00556  -0.1049  0.8376  0.0058  -8.6694   0.0000   0.0837
 -10.100  -0.6748   0.00933   0.00547  -0.1051  0.8366  0.0058  -8.5244   0.0000   0.0809
 -10.000  -0.6637   0.00918   0.00531  -0.1054  0.8355  0.0059  -8.3927   0.0000   0.0781
  -9.900  -0.6529   0.00896   0.00505  -0.1056  0.8344  0.0060  -8.2779   0.0000   0.0752
  -9.800  -0.6417   0.00880   0.00488  -0.1058  0.8337  0.0060  -8.1511   0.0000   0.0720
  -9.700  -0.6304   0.00866   0.00473  -0.1060  0.8331  0.0061  -8.0209   0.0000   0.0688
  -9.600  -0.6191   0.00854   0.00459  -0.1063  0.8324  0.0061  -7.8896   0.0000   0.0654
  -9.500  -0.6077   0.00842   0.00447  -0.1065  0.8316  0.0062  -7.7577   0.0000   0.0618
  -9.400  -0.5963   0.00832   0.00436  -0.1067  0.8307  0.0062  -7.6257   0.0000   0.0582
  -9.300  -0.5849   0.00821   0.00425  -0.1069  0.8298  0.0062  -7.4941   0.0000   0.0543
  -9.200  -0.5735   0.00812   0.00414  -0.1071  0.8288  0.0063  -7.3628   0.0000   0.0503
  -9.100  -0.5621   0.00803   0.00404  -0.1073  0.8278  0.0063  -7.2321   0.0000   0.0462
  -9.000  -0.5506   0.00794   0.00395  -0.1076  0.8267  0.0063  -7.1020   0.0000   0.0419
  -8.900  -0.5392   0.00785   0.00386  -0.1078  0.8255  0.0064  -6.9726   0.0000   0.0373
  -8.800  -0.5276   0.00776   0.00377  -0.1080  0.8249  0.0064  -6.8433   0.0000   0.0325
  -8.700  -0.5161   0.00768   0.00368  -0.1082  0.8242  0.0064  -6.7147   0.0000   0.0275
  -8.600  -0.5045   0.00759   0.00359  -0.1085  0.8233  0.0065  -6.5870   0.0000   0.0222
  -8.500  -0.4929   0.00751   0.00351  -0.1087  0.8224  0.0065  -6.4601   0.0000   0.0167
  -8.400  -0.4814   0.00744   0.00343  -0.1089  0.8214  0.0065  -6.3341   0.0000   0.0109
  -8.300  -0.4698   0.00736   0.00335  -0.1091  0.8203  0.0066  -6.2091   0.0000   0.0049
  -8.200  -0.4582   0.00729   0.00327  -0.1093  0.8192  0.0066  -6.0850   0.0000  -0.0015
  -8.100  -0.4467   0.00722   0.00320  -0.1095  0.8181  0.0066  -5.9618   0.0000  -0.0082
  -8.000  -0.4351   0.00715   0.00313  -0.1098  0.8168  0.0067  -5.8395   0.0000  -0.0152
  -7.900  -0.4234   0.00708   0.00305  -0.1100  0.8161  0.0067  -5.7176   0.0000  -0.0227
  -7.800  -0.4118   0.00701   0.00298  -0.1102  0.8153  0.0067  -5.5966   0.0000  -0.0307
  -7.700  -0.4001   0.00694   0.00292  -0.1104  0.8144  0.0068  -5.4766   0.0000  -0.0392
  -7.600  -0.3884   0.00688   0.00285  -0.1107  0.8134  0.0068  -5.3576   0.0000  -0.0481
  -7.500  -0.3768   0.00681   0.00278  -0.1109  0.8123  0.0068  -5.2397   0.0000  -0.0576
  -7.400  -0.3651   0.00675   0.00272  -0.1111  0.8111  0.0069  -5.1227   0.0000  -0.0677
  -7.300  -0.3535   0.00669   0.00266  -0.1113  0.8098  0.0069  -5.0069   0.0000  -0.0785
  -7.200  -0.3419   0.00664   0.00260  -0.1115  0.8085  0.0069  -4.8920   0.0000  -0.0899
  -7.100  -0.3302   0.00658   0.00254  -0.1117  0.8074  0.0070  -4.7780   0.0000  -0.1023
  -7.000  -0.3184   0.00652   0.00248  -0.1120  0.8066  0.0070  -4.6646   0.0000  -0.1157
  -6.900  -0.3067   0.00646   0.00242  -0.1122  0.8056  0.0071  -4.5523   0.0000  -0.1300
  -6.800  -0.2950   0.00640   0.00237  -0.1124  0.8045  0.0071  -4.4412   0.0000  -0.1456
  -6.700  -0.2832   0.00635   0.00231  -0.1126  0.8033  0.0071  -4.3311   0.0000  -0.1623
  -6.600  -0.2715   0.00630   0.00226  -0.1129  0.8020  0.0072  -4.2222   0.0000  -0.1805
  -6.500  -0.2599   0.00625   0.00221  -0.1131  0.8007  0.0072  -4.1145   0.0000  -0.2003
  -6.400  -0.2482   0.00620   0.00216  -0.1133  0.7993  0.0073  -4.0078   0.0000  -0.2220
  -6.300  -0.2365   0.00615   0.00211  -0.1135  0.7981  0.0073  -3.9020   0.0000  -0.2459
  -6.200  -0.2247   0.00610   0.00206  -0.1137  0.7973  0.0074  -3.7969   0.0000  -0.2725
  -6.100  -0.2129   0.00605   0.00201  -0.1139  0.7962  0.0075  -3.6929   0.0000  -0.3021
  -6.000  -0.2011   0.00600   0.00196  -0.1142  0.7950  0.0075  -3.5901   0.0000  -0.3350
  -5.900  -0.1894   0.00596   0.00192  -0.1144  0.7936  0.0076  -3.4883   0.0000  -0.3719
  -5.800  -0.1777   0.00592   0.00188  -0.1146  0.7920  0.0077  -3.3877   0.0000  -0.4136
  -5.700  -0.1660   0.00588   0.00184  -0.1148  0.7903  0.0077  -3.2881   0.0000  -0.4610
  -5.600  -0.1543   0.00584   0.00180  -0.1150  0.7889  0.0078  -3.1892   0.0000  -0.5159
  -5.500  -0.1424   0.00580   0.00176  -0.1152  0.7878  0.0078  -3.0909   0.0000  -0.5804
  -5.400  -0.1307   0.00576   0.00172  -0.1154  0.7864  0.0079  -2.9936   0.0000  -0.6564
  -5.300  -0.1189   0.00572   0.00168  -0.1156  0.7849  0.0079  -2.8975   0.0000  -0.7472
  -5.200  -0.1072   0.00569   0.00165  -0.1158  0.7832  0.0079  -2.8025   0.0000  -0.8575
  -5.100  -0.0955   0.00565   0.00161  -0.1160  0.7814  0.0080  -2.7094   0.0000  -0.9944
  -5.000  -0.0837   0.00561   0.00156  -0.1162  0.7796  0.0084  -2.6216   0.0000  -1.1702
  -4.900  -0.0719   0.00556   0.00152  -0.1165  0.7785  0.0088  -2.5375   0.0000  -1.4060
  -4.800  -0.0601   0.00552   0.00148  -0.1167  0.7772  0.0091  -2.4583   0.0000  -1.7339
  -4.700  -0.0483   0.00548   0.00144  -0.1169  0.7757  0.0094  -2.3785   0.0000  -2.2207
  -4.600  -0.0366   0.00544   0.00141  -0.1171  0.7740  0.0097  -2.2991   0.0000  -3.0184
  -4.500  -0.0249   0.00541   0.00138  -0.1173  0.7722  0.0099  -2.2205   0.0000  -4.5643
  -4.400  -0.0131   0.00538   0.00135  -0.1175  0.7702  0.0102  -2.1427   0.0000  -8.8595
  -4.200   0.0105   0.00531   0.00128  -0.1179  0.7674  0.0115  -1.9902   0.0000  11.6860
  -4.100   0.0223   0.00527   0.00125  -0.1181  0.7654  0.0125  -1.9151   0.0000   5.6498
  -4.000   0.0340   0.00524   0.00122  -0.1183  0.7632  0.0134  -1.8409   0.0000   3.7929
  -3.900   0.0456   0.00520   0.00119  -0.1185  0.7608  0.0152  -1.7679   0.0000   2.8894
  -3.800   0.0575   0.00517   0.00116  -0.1187  0.7591  0.0161  -1.6949   0.0000   2.3494
  -3.700   0.0692   0.00513   0.00113  -0.1189  0.7571  0.0180  -1.6232   0.0000   1.9942
  -3.600   0.0810   0.00510   0.00111  -0.1191  0.7546  0.0193  -1.5522   0.0000   1.7434
  -3.500   0.0926   0.00508   0.00108  -0.1193  0.7518  0.0211  -1.4825   0.0000   1.5569
  -3.400   0.1044   0.00505   0.00106  -0.1195  0.7497  0.0229  -1.4133   0.0000   1.4109
  -3.300   0.1161   0.00501   0.00103  -0.1197  0.7475  0.0257  -1.3450   0.0000   1.2944
  -3.200   0.1279   0.00498   0.00101  -0.1199  0.7448  0.0291  -1.2778   0.0000   1.1998
  -3.100   0.1395   0.00495   0.00098  -0.1201  0.7419  0.0325  -1.2117   0.0000   1.1214
  -3.000   0.1512   0.00492   0.00096  -0.1203  0.7396  0.0361  -1.1463   0.0000   1.0546
  -2.900   0.1630   0.00488   0.00094  -0.1205  0.7369  0.0407  -1.0818   0.0000   0.9975
  -2.800   0.1746   0.00485   0.00092  -0.1207  0.7336  0.0460  -1.0186   0.0000   0.9484
  -2.700   0.1863   0.00481   0.00089  -0.1209  0.7303  0.0539  -0.9564   0.0000   0.9054
  -2.600   0.1980   0.00478   0.00087  -0.1211  0.7275  0.0602  -0.8947   0.0000   0.8673
  -2.500   0.2097   0.00474   0.00085  -0.1213  0.7239  0.0681  -0.8344   0.0000   0.8336
  -2.400   0.2213   0.00471   0.00083  -0.1215  0.7202  0.0775  -0.7750   0.0000   0.8035
  -2.200   0.2446   0.00464   0.00080  -0.1219  0.7126  0.0981  -0.6588   0.0000   0.7519
  -2.100   0.2563   0.00459   0.00078  -0.1221  0.7090  0.1117  -0.6022   0.0000   0.7296
  -2.000   0.2680   0.00453   0.00076  -0.1223  0.7052  0.1290  -0.5466   0.0000   0.7093
  -1.900   0.2795   0.00447   0.00074  -0.1225  0.7009  0.1506  -0.5494   0.0000   0.6908
  -1.800   0.2913   0.00440   0.00072  -0.1227  0.6973  0.1714  -0.5544   0.0000   0.6737
  -1.700   0.3028   0.00435   0.00070  -0.1230  0.6922  0.1929  -0.5593   0.0000   0.6580
  -1.400   0.3376   0.00407   0.00063  -0.1237  0.6762  0.2938  -0.5752   0.0000   0.6176
  -1.200   0.3608   0.00385   0.00058  -0.1243  0.6652  0.3747  -0.5861   0.0000   0.5952
  -1.100   0.3724   0.00376   0.00056  -0.1245  0.6594  0.4095  -0.5915   0.0000   0.5850
  -1.000   0.3840   0.00368   0.00054  -0.1248  0.6551  0.4382  -0.5971   0.0000   0.5753
  -0.900   0.3956   0.00362   0.00053  -0.1250  0.6504  0.4649  -0.6029   0.0000   0.5662
  -0.800   0.4072   0.00353   0.00051  -0.1252  0.6464  0.4982  -0.6089   0.0000   0.5576
  -0.700   0.4189   0.00347   0.00050  -0.1255  0.6427  0.5239  -0.6149   0.0000   0.5494
  -0.600   0.4305   0.00345   0.00050  -0.1256  0.6385  0.5375  -0.6208   0.0000   0.5416
  -0.500   0.4421   0.00345   0.00050  -0.1258  0.6348  0.5462  -0.6267   0.0000   0.5341
  -0.400   0.4537   0.00344   0.00051  -0.1259  0.6304  0.5554  -0.6327   0.0000   0.5271
  -0.300   0.4651   0.00345   0.00051  -0.1261  0.6250  0.5647  -0.6385   0.0000   0.5204
  -0.200   0.4765   0.00345   0.00052  -0.1262  0.6186  0.5748  -0.6444   0.0000   0.5140
  -0.100   0.4878   0.00346   0.00053  -0.1263  0.6111  0.5847  -0.6502   0.0000   0.5080
   0.000   0.4990   0.00348   0.00054  -0.1264  0.6026  0.5967  -0.6563   0.0000   0.5023
   0.100   0.5101   0.00350   0.00056  -0.1265  0.5929  0.6091  -0.6628   0.0000   0.4968
   0.200   0.5211   0.00354   0.00058  -0.1265  0.5820  0.6184  -0.6696   0.0000   0.4915
   0.300   0.5320   0.00359   0.00061  -0.1266  0.5704  0.6263  -0.6765   0.0000   0.4864
   0.400   0.5430   0.00365   0.00063  -0.1266  0.5589  0.6311  -0.6837   0.0000   0.4816
   0.500   0.5539   0.00371   0.00066  -0.1266  0.5464  0.6361  -0.6908   0.0000   0.4769
   0.600   0.5647   0.00378   0.00069  -0.1266  0.5332  0.6398  -0.6981   0.0000   0.4724
   0.700   0.5754   0.00386   0.00073  -0.1266  0.5186  0.6426  -0.7057   0.0000   0.4681
   0.800   0.5860   0.00395   0.00076  -0.1266  0.5041  0.6464  -0.7138   0.0000   0.4640
   0.900   0.5966   0.00403   0.00080  -0.1265  0.4894  0.6494  -0.7224   0.0000   0.4600
   1.000   0.6074   0.00411   0.00083  -0.1265  0.4764  0.6515  -0.7310   0.0000   0.4561
   1.100   0.6183   0.00419   0.00086  -0.1265  0.4650  0.6529  -0.7397   0.0000   0.4524
   1.200   0.6292   0.00425   0.00089  -0.1266  0.4547  0.6555  -0.7490   0.0000   0.4487
   1.300   0.6402   0.00432   0.00093  -0.1266  0.4442  0.6576  -0.7589   0.0000   0.4453
   1.400   0.6511   0.00438   0.00096  -0.1266  0.4338  0.6594  -0.7687   0.0000   0.4419
   1.500   0.6619   0.00446   0.00100  -0.1266  0.4223  0.6609  -0.7785   0.0000   0.4386
   1.600   0.6726   0.00455   0.00104  -0.1266  0.4090  0.6622  -0.7892   0.0000   0.4354
   1.700   0.6832   0.00464   0.00108  -0.1266  0.3953  0.6632  -0.8001   0.0000   0.4324
   1.800   0.6937   0.00474   0.00113  -0.1265  0.3816  0.6639  -0.8111   0.0000   0.4294
   1.900   0.7043   0.00484   0.00117  -0.1265  0.3683  0.6653  -0.8220   0.0000   0.4265
   2.000   0.7150   0.00492   0.00121  -0.1265  0.3557  0.6668  -0.8331   0.0000   0.4237
   2.100   0.7256   0.00501   0.00126  -0.1265  0.3431  0.6681  -0.8446   0.0000   0.4210
   2.200   0.7359   0.00512   0.00131  -0.1264  0.3276  0.6692  -0.8570   0.0000   0.4183
   2.300   0.7462   0.00524   0.00137  -0.1263  0.3115  0.6702  -0.8694   0.0000   0.4158
   2.400   0.7565   0.00536   0.00143  -0.1262  0.2957  0.6712  -0.8866   0.0000   0.4133
   2.500   0.7667   0.00548   0.00148  -0.1261  0.2792  0.6721  -0.9053   0.0000   0.4108
   2.600   0.7770   0.00560   0.00154  -0.1260  0.2647  0.6730  -0.9255   0.0000   0.4084
   2.700   0.7874   0.00571   0.00160  -0.1260  0.2511  0.6737  -0.9482   0.0000   0.4061
   2.800   0.7978   0.00582   0.00165  -0.1259  0.2371  0.6743  -0.9736   0.0000   0.4038
   2.900   0.8081   0.00594   0.00171  -0.1258  0.2235  0.6747  -0.9991   0.0000   0.4016
   3.000   0.8187   0.00603   0.00176  -0.1258  0.2134  0.6751  -1.0266   0.0000   0.3995
   3.100   0.8294   0.00611   0.00181  -0.1258  0.2047  0.6760  -1.0598   0.0000   0.3974
   3.200   0.8401   0.00619   0.00186  -0.1258  0.1970  0.6771  -1.0934   0.0000   0.3953
   3.300   0.8509   0.00626   0.00190  -0.1258  0.1895  0.6781  -1.1273   0.0000   0.3933
   3.400   0.8614   0.00635   0.00196  -0.1257  0.1801  0.6790  -1.1654   0.0000   0.3914
   3.500   0.8718   0.00646   0.00202  -0.1257  0.1693  0.6798  -1.2069   0.0000   0.3895
   3.600   0.8822   0.00656   0.00208  -0.1256  0.1591  0.6806  -1.2488   0.0000   0.3876
   3.700   0.8928   0.00665   0.00213  -0.1256  0.1507  0.6813  -1.2913   0.0000   0.3858
   3.800   0.9030   0.00676   0.00220  -0.1255  0.1395  0.6820  -1.3336   0.0000   0.3840
   3.900   0.9130   0.00689   0.00228  -0.1253  0.1266  0.6827  -1.3757   0.0000   0.3822
   4.000   0.9232   0.00701   0.00235  -0.1252  0.1163  0.6834  -1.4186   0.0000   0.3805
   4.100   0.9337   0.00711   0.00241  -0.1252  0.1086  0.6839  -1.4624   0.0000   0.3788
   4.200   0.9442   0.00720   0.00247  -0.1251  0.1017  0.6845  -1.5090   0.0000   0.3771
   4.300   0.9546   0.00729   0.00253  -0.1251  0.0949  0.6849  -1.5656   0.0000   0.3755
   4.400   0.9650   0.00739   0.00260  -0.1250  0.0878  0.6853  -1.6226   0.0000   0.3739
   4.500   0.9754   0.00749   0.00267  -0.1249  0.0816  0.6857  -1.6803   0.0000   0.3724
   4.600   0.9858   0.00758   0.00273  -0.1249  0.0755  0.6860  -1.7427   0.0000   0.3709
   4.700   0.9961   0.00769   0.00280  -0.1248  0.0694  0.6862  -1.8068   0.0000   0.3694
   4.800   1.0065   0.00778   0.00286  -0.1247  0.0640  0.6865  -1.8719   0.0000   0.3679
   4.900   1.0170   0.00787   0.00293  -0.1246  0.0593  0.6874  -1.9378   0.0000   0.3665
   5.000   1.0275   0.00795   0.00299  -0.1246  0.0554  0.6883  -2.0047   0.0000   0.3650
   5.100   1.0379   0.00804   0.00306  -0.1245  0.0517  0.6891  -2.0720   0.0000   0.3637
   5.200   1.0485   0.00811   0.00312  -0.1245  0.0488  0.6898  -2.1408   0.0000   0.3623
   5.300   1.0589   0.00820   0.00319  -0.1244  0.0454  0.6905  -2.2095   0.0000   0.3610
   5.400   1.0693   0.00828   0.00325  -0.1244  0.0424  0.6911  -2.2790   0.0000   0.3597
   5.500   1.0798   0.00836   0.00332  -0.1243  0.0399  0.6917  -2.3497   0.0000   0.3584
   5.600   1.0901   0.00845   0.00339  -0.1243  0.0368  0.6923  -2.4203   0.0000   0.3571
   5.700   1.1006   0.00853   0.00345  -0.1242  0.0348  0.6928  -2.4924   0.0000   0.3558
   5.800   1.1109   0.00862   0.00353  -0.1241  0.0321  0.6933  -2.5643   0.0000   0.3546
   5.900   1.1212   0.00870   0.00360  -0.1240  0.0301  0.6938  -2.6373   0.0000   0.3534
   6.000   1.1316   0.00879   0.00367  -0.1240  0.0281  0.6942  -2.7113   0.0000   0.3522
   6.100   1.1419   0.00887   0.00374  -0.1239  0.0263  0.6947  -2.7919   0.0000   0.3510
   6.200   1.1522   0.00896   0.00381  -0.1238  0.0245  0.6950  -2.8732   0.0000   0.3499
   6.300   1.1625   0.00904   0.00388  -0.1237  0.0233  0.6954  -2.9559   0.0000   0.3487
   6.400   1.1727   0.00913   0.00396  -0.1236  0.0216  0.6957  -3.0383   0.0000   0.3476
   6.500   1.1830   0.00921   0.00403  -0.1236  0.0207  0.6961  -3.1227   0.0000   0.3465
   6.600   1.1932   0.00930   0.00411  -0.1235  0.0194  0.6964  -3.2071   0.0000   0.3454
   6.700   1.2033   0.00939   0.00419  -0.1234  0.0179  0.6967  -3.2918   0.0000   0.3443
   6.800   1.2135   0.00947   0.00426  -0.1233  0.0171  0.6969  -3.3782   0.0000   0.3432
   6.900   1.2236   0.00956   0.00434  -0.1231  0.0162  0.6972  -3.4645   0.0000   0.3422
   7.000   1.2337   0.00965   0.00442  -0.1230  0.0151  0.6974  -3.5517   0.0000   0.3411
   7.100   1.2439   0.00973   0.00449  -0.1229  0.0147  0.6975  -3.6406   0.0000   0.3401
   7.200   1.2541   0.00981   0.00457  -0.1228  0.0143  0.6978  -3.7300   0.0000   0.3391
   7.300   1.2641   0.00990   0.00465  -0.1227  0.0138  0.6986  -3.8197   0.0000   0.3381
   7.400   1.2741   0.00999   0.00473  -0.1226  0.0131  0.6993  -3.9096   0.0000   0.3371
   7.500   1.2841   0.01008   0.00482  -0.1225  0.0124  0.7000  -4.0005   0.0000   0.3361
   7.600   1.2942   0.01015   0.00489  -0.1224  0.0122  0.7006  -4.0931   0.0000   0.3352
   7.700   1.3043   0.01023   0.00497  -0.1222  0.0119  0.7012  -4.1862   0.0000   0.3342
   7.800   1.3142   0.01032   0.00505  -0.1221  0.0115  0.7017  -4.2795   0.0000   0.3333
   7.900   1.3238   0.01042   0.00515  -0.1219  0.0107  0.7022  -4.3722   0.0000   0.3323
   8.000   1.3335   0.01053   0.00525  -0.1217  0.0098  0.7027  -4.4653   0.0000   0.3314
   8.100   1.3433   0.01062   0.00533  -0.1216  0.0095  0.7031  -4.5604   0.0000   0.3305
   8.200   1.3530   0.01072   0.00543  -0.1214  0.0092  0.7035  -4.6557   0.0000   0.3295
   8.300   1.3625   0.01082   0.00552  -0.1212  0.0088  0.7039  -4.7511   0.0000   0.3286
   8.400   1.3720   0.01093   0.00563  -0.1210  0.0083  0.7043  -4.8465   0.0000   0.3277
   8.500   1.3815   0.01103   0.00573  -0.1207  0.0078  0.7047  -4.9422   0.0000   0.3268
   8.600   1.3911   0.01113   0.00582  -0.1205  0.0076  0.7051  -5.0398   0.0000   0.3259
   8.700   1.4007   0.01122   0.00591  -0.1204  0.0076  0.7055  -5.1390   0.0000   0.3251
   8.800   1.4102   0.01131   0.00600  -0.1202  0.0075  0.7058  -5.2388   0.0000   0.3242
   8.900   1.4197   0.01141   0.00610  -0.1199  0.0073  0.7061  -5.3460   0.0000   0.3233
   9.000   1.4290   0.01151   0.00619  -0.1197  0.0072  0.7064  -5.4535   0.0000   0.3225
   9.100   1.4382   0.01162   0.00630  -0.1194  0.0070  0.7067  -5.5612   0.0000   0.3216
   9.200   1.4474   0.01172   0.00640  -0.1192  0.0069  0.7070  -5.6693   0.0000   0.3207
   9.300   1.4565   0.01184   0.00651  -0.1189  0.0067  0.7072  -5.7776   0.0000   0.3199
   9.400   1.4653   0.01195   0.00662  -0.1186  0.0065  0.7075  -5.8851   0.0000   0.3190
   9.500   1.4735   0.01206   0.00673  -0.1181  0.0063  0.7077  -5.9901   0.0000   0.3181
   9.600   1.4813   0.01217   0.00684  -0.1175  0.0061  0.7079  -6.0933   0.0000   0.3172
   9.700   1.4893   0.01229   0.00696  -0.1170  0.0059  0.7081  -6.1984   0.0000   0.3163
   9.800   1.4975   0.01241   0.00708  -0.1166  0.0057  0.7083  -6.3042   0.0000   0.3154
   9.900   1.5059   0.01252   0.00719  -0.1162  0.0057  0.7085  -6.4142   0.0000   0.3145
  10.000   1.5143   0.01263   0.00730  -0.1158  0.0057  0.7086  -6.5252   0.0000   0.3137
  10.100   1.5226   0.01274   0.00741  -0.1153  0.0057  0.7088  -6.6367   0.0000   0.3128
  10.200   1.5309   0.01285   0.00752  -0.1149  0.0057  0.7089  -6.7486   0.0000   0.3120
  10.300   1.5391   0.01296   0.00764  -0.1145  0.0056  0.7095  -6.8611   0.0000   0.3111
  10.400   1.5472   0.01308   0.00776  -0.1141  0.0056  0.7101  -6.9739   0.0000   0.3103
  10.500   1.5553   0.01320   0.00788  -0.1136  0.0056  0.7108  -7.0871   0.0000   0.3095
  10.600   1.5633   0.01332   0.00800  -0.1132  0.0055  0.7114  -7.2004   0.0000   0.3086
  10.700   1.5712   0.01344   0.00813  -0.1127  0.0055  0.7120  -7.3140   0.0000   0.3078
  10.800   1.5790   0.01358   0.00827  -0.1122  0.0054  0.7126  -7.4331   0.0000   0.3070
  10.900   1.5867   0.01371   0.00840  -0.1117  0.0054  0.7130  -7.5542   0.0000   0.3062
  11.000   1.5944   0.01385   0.00854  -0.1112  0.0053  0.7135  -7.6758   0.0000   0.3054
  11.100   1.6020   0.01399   0.00869  -0.1107  0.0053  0.7139  -7.7976   0.0000   0.3046
  11.200   1.6095   0.01414   0.00884  -0.1102  0.0052  0.7143  -7.9198   0.0000   0.3038
  11.300   1.6169   0.01429   0.00899  -0.1097  0.0051  0.7147  -8.0423   0.0000   0.3030
  11.400   1.6243   0.01444   0.00915  -0.1091  0.0051  0.7150  -8.1652   0.0000   0.3022
  11.500   1.6316   0.01460   0.00931  -0.1086  0.0050  0.7153  -8.2881   0.0000   0.3014
  11.600   1.6388   0.01477   0.00948  -0.1081  0.0049  0.7157  -8.4113   0.0000   0.3006
  11.700   1.6460   0.01494   0.00966  -0.1075  0.0048  0.7160  -8.5348   0.0000   0.2998
  11.800   1.6531   0.01511   0.00983  -0.1070  0.0048  0.7163  -8.6585   0.0000   0.2990
  11.900   1.6601   0.01529   0.01001  -0.1064  0.0047  0.7166  -8.7823   0.0000   0.2982
  12.000   1.6670   0.01548   0.01020  -0.1058  0.0046  0.7169  -8.9061   0.0000   0.2974
  12.100   1.6739   0.01566   0.01039  -0.1052  0.0045  0.7171  -9.0302   0.0000   0.2967
  12.200   1.6807   0.01586   0.01059  -0.1047  0.0044  0.7174  -9.1544   0.0000   0.2959
  12.300   1.6875   0.01605   0.01079  -0.1041  0.0043  0.7177  -9.2788   0.0000   0.2951
  12.400   1.6941   0.01626   0.01100  -0.1035  0.0042  0.7179  -9.4027   0.0000   0.2943
  12.500   1.7006   0.01647   0.01122  -0.1029  0.0041  0.7182  -9.5262   0.0000   0.2936
  12.600   1.7070   0.01669   0.01145  -0.1022  0.0040  0.7184  -9.6495   0.0000   0.2928
  12.700   1.7139   0.01688   0.01164  -0.1017  0.0040  0.7186  -9.7795   0.0000   0.2921
  12.800   1.7209   0.01707   0.01184  -0.1012  0.0040  0.7189  -9.9103   0.0000   0.2913
  12.900   1.7277   0.01727   0.01204  -0.1006  0.0040  0.7191  -10.0413   0.0000   0.2906
  13.000   1.7345   0.01747   0.01224  -0.1001  0.0040  0.7192  -10.1724   0.0000   0.2899
  13.100   1.7412   0.01767   0.01245  -0.0996  0.0040  0.7194  -10.3039   0.0000   0.2892
  13.200   1.7478   0.01788   0.01266  -0.0990  0.0040  0.7196  -10.4353   0.0000   0.2885
  13.300   1.7543   0.01809   0.01288  -0.0984  0.0040  0.7197  -10.5671   0.0000   0.2877
  13.400   1.7609   0.01830   0.01310  -0.0979  0.0040  0.7198  -10.6997   0.0000   0.2870
  13.500   1.7674   0.01852   0.01333  -0.0973  0.0040  0.7199  -10.8322   0.0000   0.2863
  13.600   1.7738   0.01875   0.01356  -0.0968  0.0040  0.7201  -10.9651   0.0000   0.2856
  13.700   1.7802   0.01898   0.01379  -0.0962  0.0040  0.7201  -11.0987   0.0000   0.2849
  13.800   1.7865   0.01922   0.01403  -0.0957  0.0039  0.7202  -11.2316   0.0000   0.2842
  13.900   1.7927   0.01945   0.01428  -0.0951  0.0039  0.7207  -11.3646   0.0000   0.2835
  14.000   1.7988   0.01969   0.01453  -0.0945  0.0039  0.7213  -11.4982   0.0000   0.2828
  14.100   1.8049   0.01994   0.01479  -0.0939  0.0039  0.7218  -11.6312   0.0000   0.2822
  14.200   1.8109   0.02020   0.01505  -0.0933  0.0039  0.7224  -11.7647   0.0000   0.2815
  14.300   1.8169   0.02046   0.01531  -0.0928  0.0039  0.7229  -11.8989   0.0000   0.2808
  14.400   1.8227   0.02072   0.01559  -0.0922  0.0038  0.7235  -12.0324   0.0000   0.2801
  14.500   1.8285   0.02100   0.01587  -0.0916  0.0038  0.7240  -12.1662   0.0000   0.2794
  14.600   1.8343   0.02127   0.01616  -0.0910  0.0038  0.7245  -12.3008   0.0000   0.2787
  14.700   1.8399   0.02156   0.01645  -0.0904  0.0038  0.7249  -12.4341   0.0000   0.2781
  14.800   1.8454   0.02185   0.01676  -0.0898  0.0037  0.7254  -12.5670   0.0000   0.2774
  14.900   1.8508   0.02215   0.01706  -0.0892  0.0037  0.7258  -12.7004   0.0000   0.2767
  15.000   1.8560   0.02246   0.01738  -0.0885  0.0037  0.7261  -12.8325   0.0000   0.2760
  15.100   1.8612   0.02277   0.01770  -0.0879  0.0037  0.7265  -12.9648   0.0000   0.2754
  15.200   1.8665   0.02309   0.01802  -0.0873  0.0036  0.7268  -13.0982   0.0000   0.2747
  15.300   1.8715   0.02342   0.01837  -0.0866  0.0036  0.7272  -13.2301   0.0000   0.2740
  15.400   1.8764   0.02376   0.01871  -0.0860  0.0036  0.7275  -13.3621   0.0000   0.2734
  15.500   1.8814   0.02410   0.01906  -0.0854  0.0036  0.7278  -13.4952   0.0000   0.2727
  15.600   1.8861   0.02445   0.01943  -0.0847  0.0035  0.7281  -13.6264   0.0000   0.2720
  15.700   1.8908   0.02482   0.01980  -0.0841  0.0035  0.7283  -13.7575   0.0000   0.2714
  15.800   1.8955   0.02518   0.02018  -0.0835  0.0035  0.7286  -13.8894   0.0000   0.2707
  15.900   1.8998   0.02557   0.02057  -0.0828  0.0034  0.7288  -14.0182   0.0000   0.2701
  16.000   1.9040   0.02596   0.02097  -0.0821  0.0034  0.7290  -14.1469   0.0000   0.2694
  16.100   1.9083   0.02635   0.02137  -0.0815  0.0034  0.7293  -14.2765   0.0000   0.2687
  16.200   1.9122   0.02677   0.02180  -0.0808  0.0033  0.7295  -14.4038   0.0000   0.2681
  16.300   1.9162   0.02719   0.02223  -0.0801  0.0033  0.7297  -14.5320   0.0000   0.2674
  16.400   1.9203   0.02761   0.02267  -0.0794  0.0033  0.7299  -14.6604   0.0000   0.2668
  16.500   1.9239   0.02806   0.02313  -0.0788  0.0032  0.7301  -14.7862   0.0000   0.2661
  16.600   1.9277   0.02851   0.02359  -0.0781  0.0032  0.7302  -14.9134   0.0000   0.2655
  16.700   1.9314   0.02897   0.02406  -0.0775  0.0031  0.7304  -15.0396   0.0000   0.2649
  16.800   1.9348   0.02945   0.02455  -0.0768  0.0031  0.7306  -15.1638   0.0000   0.2642
  16.900   1.9383   0.02993   0.02504  -0.0761  0.0030  0.7307  -15.2899   0.0000   0.2636
  17.000   1.9415   0.03043   0.02556  -0.0755  0.0030  0.7309  -15.4130   0.0000   0.2630
  17.100   1.9446   0.03095   0.02609  -0.0748  0.0030  0.7310  -15.5349   0.0000   0.2623
  17.200   1.9477   0.03146   0.02662  -0.0742  0.0029  0.7311  -15.6578   0.0000   0.2617
  17.300   1.9505   0.03201   0.02718  -0.0735  0.0029  0.7313  -15.7774   0.0000   0.2611
  17.400   1.9534   0.03256   0.02775  -0.0728  0.0028  0.7314  -15.8991   0.0000   0.2605
  17.500   1.9562   0.03313   0.02833  -0.0722  0.0028  0.7315  -16.0195   0.0000   0.2599
  17.600   1.9588   0.03372   0.02894  -0.0716  0.0028  0.7316  -16.1378   0.0000   0.2593
  17.700   1.9616   0.03431   0.02954  -0.0710  0.0027  0.7318  -16.2584   0.0000   0.2587
  17.800   1.9639   0.03494   0.03019  -0.0704  0.0027  0.7323  -16.3748   0.0000   0.2581
  17.900   1.9663   0.03557   0.03084  -0.0698  0.0027  0.7328  -16.4922   0.0000   0.2575
  18.000   1.9686   0.03622   0.03151  -0.0692  0.0027  0.7333  -16.6083   0.0000   0.2569
  18.100   1.9713   0.03683   0.03214  -0.0686  0.0026  0.7338  -16.7325   0.0000   0.2564
  18.200   1.9745   0.03741   0.03274  -0.0681  0.0026  0.7343  -16.8609   0.0000   0.2558
  18.300   1.9771   0.03805   0.03339  -0.0676  0.0026  0.7348  -16.9849   0.0000   0.2553
  18.400   1.9798   0.03868   0.03404  -0.0671  0.0026  0.7352  -17.1091   0.0000   0.2547
  18.500   1.9825   0.03931   0.03468  -0.0667  0.0026  0.7357  -17.2338   0.0000   0.2542
  18.600   1.9846   0.03999   0.03538  -0.0662  0.0026  0.7360  -17.3539   0.0000   0.2537
  18.700   1.9872   0.04065   0.03605  -0.0657  0.0026  0.7364  -17.4776   0.0000   0.2532
  18.800   1.9893   0.04135   0.03677  -0.0652  0.0026  0.7368  -17.5981   0.0000   0.2526
  18.900   1.9915   0.04206   0.03750  -0.0648  0.0026  0.7371  -17.7184   0.0000   0.2521
  19.000   1.9937   0.04277   0.03822  -0.0643  0.0026  0.7374  -17.8408   0.0000   0.2516
  19.100   1.9955   0.04354   0.03901  -0.0639  0.0026  0.7377  -17.9580   0.0000   0.2511
  19.200   1.9977   0.04427   0.03976  -0.0635  0.0026  0.7380  -18.0794   0.0000   0.2506
  19.300   1.9993   0.04506   0.04057  -0.0631  0.0026  0.7383  -18.1958   0.0000   0.2501
  19.400   2.0011   0.04585   0.04138  -0.0627  0.0026  0.7386  -18.3133   0.0000   0.2497
  19.500   2.0028   0.04665   0.04220  -0.0623  0.0026  0.7389  -18.4307   0.0000   0.2492
  19.600   2.0041   0.04750   0.04306  -0.0619  0.0026  0.7392  -18.5441   0.0000   0.2487
  19.700   2.0058   0.04832   0.04390  -0.0616  0.0026  0.7395  -18.6613   0.0000   0.2483
  19.800   2.0067   0.04922   0.04482  -0.0612  0.0026  0.7398  -18.7715   0.0000   0.2478
  19.900   2.0082   0.05008   0.04570  -0.0609  0.0026  0.7400  -18.8865   0.0000   0.2474
  20.000   2.0089   0.05101   0.04665  -0.0606  0.0026  0.7403  -18.9948   0.0000   0.2469


