xflr5 v6.32

 Calculated polar for: foil1 modified

 1 1 Reynolds number fixed          Mach number fixed         

 xtrf =   1.000 (top)        1.000 (bottom)
 Mach =   0.000     Re =    20.000 e 6     Ncrit =   9.000

  alpha     CL        CD       CDp       Cm    Top Xtr Bot Xtr   Cpmin    Chinge    XCp    
 ------- -------- --------- --------- -------- ------- ------- -------- --------- ---------
 -15.000  -1.2169   0.01282   0.00924  -0.0963  0.8593  0.0043  -16.8221   0.0000   0.1521
 -14.900  -1.2069   0.01263   0.00903  -0.0965  0.8588  0.0043  -16.6575   0.0000   0.1514
 -14.800  -1.1969   0.01244   0.00883  -0.0966  0.8582  0.0043  -16.4946   0.0000   0.1508
 -14.700  -1.1868   0.01225   0.00863  -0.0968  0.8575  0.0043  -16.3340   0.0000   0.1501
 -14.600  -1.1767   0.01206   0.00843  -0.0970  0.8567  0.0044  -16.1776   0.0000   0.1494
 -14.500  -1.1667   0.01186   0.00821  -0.0972  0.8559  0.0045  -16.0303   0.0000   0.1487
 -14.400  -1.1568   0.01162   0.00796  -0.0973  0.8549  0.0047  -15.9013   0.0000   0.1480
 -14.300  -1.1466   0.01145   0.00777  -0.0975  0.8539  0.0048  -15.7438   0.0000   0.1472
 -14.200  -1.1361   0.01130   0.00762  -0.0977  0.8528  0.0049  -15.5726   0.0000   0.1464
 -14.100  -1.1256   0.01116   0.00748  -0.0979  0.8516  0.0050  -15.3971   0.0000   0.1456
 -14.000  -1.1149   0.01102   0.00735  -0.0981  0.8510  0.0051  -15.2197   0.0000   0.1447
 -13.900  -1.1042   0.01090   0.00723  -0.0983  0.8505  0.0051  -15.0416   0.0000   0.1438
 -13.800  -1.0934   0.01077   0.00711  -0.0985  0.8500  0.0052  -14.8633   0.0000   0.1429
 -13.700  -1.0826   0.01066   0.00699  -0.0987  0.8493  0.0052  -14.6851   0.0000   0.1420
 -13.600  -1.0717   0.01054   0.00688  -0.0989  0.8486  0.0053  -14.5071   0.0000   0.1410
 -13.500  -1.0608   0.01043   0.00677  -0.0991  0.8478  0.0053  -14.3295   0.0000   0.1400
 -13.400  -1.0499   0.01033   0.00666  -0.0993  0.8469  0.0053  -14.1525   0.0000   0.1390
 -13.300  -1.0389   0.01023   0.00656  -0.0995  0.8459  0.0054  -13.9760   0.0000   0.1379
 -13.200  -1.0280   0.01013   0.00645  -0.0997  0.8448  0.0054  -13.8001   0.0000   0.1368
 -13.100  -1.0170   0.01003   0.00635  -0.0999  0.8435  0.0054  -13.6248   0.0000   0.1357
 -13.000  -1.0059   0.00993   0.00626  -0.1001  0.8426  0.0055  -13.4500   0.0000   0.1346
 -12.900  -0.9948   0.00983   0.00616  -0.1003  0.8421  0.0055  -13.2756   0.0000   0.1334
 -12.800  -0.9837   0.00974   0.00607  -0.1005  0.8415  0.0055  -13.1020   0.0000   0.1322
 -12.700  -0.9726   0.00965   0.00597  -0.1007  0.8407  0.0055  -12.9292   0.0000   0.1309
 -12.600  -0.9615   0.00955   0.00588  -0.1009  0.8398  0.0056  -12.7572   0.0000   0.1296
 -12.500  -0.9503   0.00946   0.00579  -0.1011  0.8388  0.0056  -12.5862   0.0000   0.1283
 -12.400  -0.9392   0.00938   0.00570  -0.1013  0.8378  0.0056  -12.4160   0.0000   0.1269
 -12.300  -0.9280   0.00929   0.00561  -0.1015  0.8366  0.0056  -12.2466   0.0000   0.1255
 -12.200  -0.9168   0.00921   0.00553  -0.1017  0.8353  0.0056  -12.0781   0.0000   0.1241
 -12.100  -0.9056   0.00912   0.00544  -0.1019  0.8341  0.0056  -11.9102   0.0000   0.1226
 -12.000  -0.8943   0.00904   0.00536  -0.1021  0.8336  0.0056  -11.7429   0.0000   0.1210
 -11.900  -0.8830   0.00895   0.00528  -0.1023  0.8330  0.0057  -11.5765   0.0000   0.1195
 -11.800  -0.8717   0.00887   0.00519  -0.1025  0.8323  0.0057  -11.4110   0.0000   0.1178
 -11.700  -0.8604   0.00879   0.00511  -0.1027  0.8315  0.0057  -11.2464   0.0000   0.1161
 -11.600  -0.8491   0.00871   0.00503  -0.1029  0.8306  0.0057  -11.0828   0.0000   0.1144
 -11.500  -0.8378   0.00863   0.00496  -0.1031  0.8296  0.0057  -10.9202   0.0000   0.1126
 -11.400  -0.8264   0.00856   0.00488  -0.1033  0.8286  0.0057  -10.7586   0.0000   0.1108
 -11.300  -0.8151   0.00848   0.00480  -0.1036  0.8275  0.0057  -10.5980   0.0000   0.1089
 -11.200  -0.8037   0.00841   0.00473  -0.1038  0.8262  0.0057  -10.4382   0.0000   0.1069
 -11.100  -0.7923   0.00833   0.00465  -0.1040  0.8253  0.0057  -10.2793   0.0000   0.1049
 -11.000  -0.7809   0.00826   0.00458  -0.1042  0.8248  0.0057  -10.1210   0.0000   0.1027
 -10.900  -0.7695   0.00818   0.00450  -0.1044  0.8242  0.0057  -9.9638   0.0000   0.1005
 -10.800  -0.7580   0.00811   0.00443  -0.1046  0.8235  0.0057  -9.8077   0.0000   0.0983
 -10.700  -0.7466   0.00804   0.00436  -0.1048  0.8226  0.0058  -9.6526   0.0000   0.0960
 -10.600  -0.7351   0.00797   0.00429  -0.1051  0.8216  0.0058  -9.4985   0.0000   0.0936
 -10.500  -0.7237   0.00790   0.00422  -0.1053  0.8206  0.0058  -9.3456   0.0000   0.0911
 -10.400  -0.7122   0.00783   0.00415  -0.1055  0.8194  0.0058  -9.1937   0.0000   0.0885
 -10.300  -0.7008   0.00776   0.00409  -0.1057  0.8180  0.0058  -9.0429   0.0000   0.0859
 -10.200  -0.6893   0.00770   0.00402  -0.1059  0.8166  0.0058  -8.8931   0.0000   0.0831
 -10.100  -0.6778   0.00763   0.00395  -0.1061  0.8161  0.0058  -8.7439   0.0000   0.0802
 -10.000  -0.6662   0.00756   0.00388  -0.1063  0.8154  0.0058  -8.5958   0.0000   0.0772
  -9.900  -0.6547   0.00749   0.00382  -0.1065  0.8146  0.0058  -8.4488   0.0000   0.0741
  -9.800  -0.6431   0.00743   0.00375  -0.1068  0.8137  0.0058  -8.3029   0.0000   0.0709
  -9.700  -0.6316   0.00736   0.00369  -0.1070  0.8126  0.0058  -8.1581   0.0000   0.0676
  -9.600  -0.6200   0.00730   0.00363  -0.1072  0.8114  0.0058  -8.0146   0.0000   0.0642
  -9.500  -0.6085   0.00724   0.00357  -0.1074  0.8101  0.0058  -7.8722   0.0000   0.0606
  -9.400  -0.5970   0.00718   0.00350  -0.1076  0.8086  0.0058  -7.7308   0.0000   0.0568
  -9.300  -0.5854   0.00712   0.00344  -0.1078  0.8074  0.0058  -7.5904   0.0000   0.0529
  -9.200  -0.5738   0.00705   0.00338  -0.1081  0.8068  0.0058  -7.4508   0.0000   0.0488
  -9.100  -0.5622   0.00699   0.00332  -0.1083  0.8060  0.0058  -7.3123   0.0000   0.0446
  -9.000  -0.5505   0.00693   0.00326  -0.1085  0.8049  0.0058  -7.1751   0.0000   0.0401
  -8.900  -0.5389   0.00687   0.00320  -0.1087  0.8037  0.0058  -7.0390   0.0000   0.0355
  -8.800  -0.5273   0.00681   0.00314  -0.1089  0.8024  0.0058  -6.9042   0.0000   0.0307
  -8.700  -0.5157   0.00676   0.00308  -0.1091  0.8009  0.0058  -6.7706   0.0000   0.0256
  -8.600  -0.5041   0.00670   0.00303  -0.1093  0.7992  0.0058  -6.6380   0.0000   0.0203
  -8.500  -0.4925   0.00665   0.00297  -0.1096  0.7981  0.0058  -6.5063   0.0000   0.0147
  -8.400  -0.4808   0.00659   0.00291  -0.1098  0.7974  0.0058  -6.3756   0.0000   0.0089
  -8.300  -0.4691   0.00653   0.00286  -0.1100  0.7964  0.0058  -6.2461   0.0000   0.0027
  -8.200  -0.4575   0.00647   0.00280  -0.1102  0.7953  0.0058  -6.1178   0.0000  -0.0038
  -8.100  -0.4458   0.00642   0.00275  -0.1104  0.7940  0.0058  -5.9907   0.0000  -0.0106
  -8.000  -0.4342   0.00637   0.00269  -0.1106  0.7925  0.0058  -5.8649   0.0000  -0.0178
  -7.900  -0.4225   0.00632   0.00264  -0.1109  0.7909  0.0058  -5.7403   0.0000  -0.0254
  -7.800  -0.4109   0.00627   0.00259  -0.1111  0.7891  0.0058  -5.6166   0.0000  -0.0334
  -7.700  -0.3991   0.00621   0.00253  -0.1113  0.7884  0.0058  -5.4938   0.0000  -0.0420
  -7.600  -0.3874   0.00616   0.00248  -0.1115  0.7874  0.0058  -5.3722   0.0000  -0.0511
  -7.500  -0.3757   0.00611   0.00243  -0.1117  0.7860  0.0058  -5.2518   0.0000  -0.0607
  -7.400  -0.3640   0.00606   0.00238  -0.1119  0.7844  0.0058  -5.1327   0.0000  -0.0710
  -7.300  -0.3524   0.00601   0.00233  -0.1122  0.7825  0.0058  -5.0150   0.0000  -0.0818
  -7.200  -0.3407   0.00597   0.00228  -0.1124  0.7803  0.0058  -4.8984   0.0000  -0.0935
  -7.100  -0.3290   0.00592   0.00223  -0.1126  0.7791  0.0058  -4.7825   0.0000  -0.1061
  -7.000  -0.3172   0.00586   0.00218  -0.1128  0.7780  0.0058  -4.6688   0.0000  -0.1196
  -6.900  -0.3055   0.00581   0.00212  -0.1130  0.7765  0.0059  -4.5577   0.0000  -0.1342
  -6.800  -0.2938   0.00576   0.00206  -0.1132  0.7747  0.0059  -4.4477   0.0000  -0.1498
  -6.700  -0.2821   0.00571   0.00201  -0.1134  0.7726  0.0059  -4.3388   0.0000  -0.1667
  -6.600  -0.2705   0.00567   0.00196  -0.1136  0.7703  0.0059  -4.2308   0.0000  -0.1851
  -6.500  -0.2587   0.00562   0.00191  -0.1139  0.7693  0.0059  -4.1233   0.0000  -0.2054
  -6.400  -0.2469   0.00557   0.00186  -0.1141  0.7680  0.0060  -4.0169   0.0000  -0.2277
  -6.300  -0.2351   0.00553   0.00181  -0.1143  0.7663  0.0060  -3.9117   0.0000  -0.2521
  -6.200  -0.2234   0.00548   0.00177  -0.1145  0.7644  0.0060  -3.8077   0.0000  -0.2789
  -6.100  -0.2117   0.00545   0.00172  -0.1147  0.7622  0.0061  -3.7050   0.0000  -0.3086
  -6.000  -0.2000   0.00541   0.00168  -0.1149  0.7603  0.0061  -3.6033   0.0000  -0.3420
  -5.900  -0.1882   0.00536   0.00163  -0.1151  0.7590  0.0062  -3.5025   0.0000  -0.3798
  -5.800  -0.1764   0.00532   0.00159  -0.1153  0.7573  0.0063  -3.4034   0.0000  -0.4226
  -5.700  -0.1647   0.00529   0.00155  -0.1155  0.7550  0.0064  -3.3062   0.0000  -0.4711
  -5.600  -0.1530   0.00525   0.00151  -0.1157  0.7522  0.0068  -3.2105   0.0000  -0.5268
  -5.500  -0.1413   0.00521   0.00147  -0.1159  0.7502  0.0071  -3.1134   0.0000  -0.5924
  -5.400  -0.1295   0.00517   0.00144  -0.1161  0.7484  0.0073  -3.0162   0.0000  -0.6701
  -5.300  -0.1178   0.00514   0.00141  -0.1163  0.7459  0.0075  -2.9200   0.0000  -0.7627
  -5.200  -0.1061   0.00512   0.00138  -0.1165  0.7427  0.0076  -2.8250   0.0000  -0.8748
  -5.100  -0.0944   0.00509   0.00135  -0.1167  0.7402  0.0077  -2.7307   0.0000  -1.0160
  -5.000  -0.0826   0.00506   0.00132  -0.1169  0.7380  0.0078  -2.6381   0.0000  -1.1979
  -4.900  -0.0709   0.00504   0.00130  -0.1171  0.7349  0.0079  -2.5541   0.0000  -1.4377
  -4.800  -0.0593   0.00502   0.00127  -0.1173  0.7310  0.0079  -2.4710   0.0000  -1.7699
  -4.700  -0.0475   0.00500   0.00125  -0.1175  0.7289  0.0079  -2.3883   0.0000  -2.2731
  -4.600  -0.0358   0.00498   0.00122  -0.1177  0.7260  0.0079  -2.3067   0.0000  -3.1003
  -4.500  -0.0242   0.00496   0.00120  -0.1178  0.7223  0.0079  -2.2265   0.0000  -4.7093
  -4.400  -0.0125   0.00494   0.00118  -0.1180  0.7197  0.0080  -2.1482   0.0000  -9.3854
  -4.300  -0.0008   0.00491   0.00115  -0.1182  0.7166  0.0084  -2.0733   0.0000  -157.4199
  -4.200   0.0108   0.00490   0.00113  -0.1184  0.7121  0.0090  -1.9984   0.0000  11.4138
  -4.100   0.0225   0.00488   0.00110  -0.1186  0.7088  0.0095  -1.9230   0.0000   5.6113
  -4.000   0.0341   0.00486   0.00108  -0.1187  0.7049  0.0098  -1.8482   0.0000   3.7865
  -3.900   0.0457   0.00485   0.00106  -0.1189  0.7003  0.0102  -1.7744   0.0000   2.8938
  -3.700   0.0690   0.00481   0.00102  -0.1193  0.6923  0.0124  -1.6297   0.0000   2.0052
  -3.600   0.0806   0.00479   0.00100  -0.1194  0.6881  0.0133  -1.5585   0.0000   1.7531
  -3.500   0.0922   0.00478   0.00098  -0.1196  0.6829  0.0152  -1.4888   0.0000   1.5658
  -3.400   0.1037   0.00477   0.00096  -0.1197  0.6779  0.0161  -1.4196   0.0000   1.4200
  -3.300   0.1153   0.00476   0.00095  -0.1199  0.6729  0.0176  -1.3516   0.0000   1.3035
  -3.200   0.1268   0.00475   0.00093  -0.1201  0.6678  0.0191  -1.2845   0.0000   1.2084
  -3.100   0.1384   0.00474   0.00092  -0.1202  0.6627  0.0201  -1.2181   0.0000   1.1290
  -3.000   0.1499   0.00473   0.00090  -0.1204  0.6568  0.0224  -1.1531   0.0000   1.0622
  -2.900   0.1613   0.00473   0.00089  -0.1205  0.6500  0.0245  -1.0892   0.0000   1.0051
  -2.800   0.1728   0.00473   0.00088  -0.1206  0.6433  0.0273  -1.0261   0.0000   0.9554
  -2.700   0.1841   0.00472   0.00087  -0.1207  0.6355  0.0312  -0.9644   0.0000   0.9123
  -2.600   0.1955   0.00473   0.00086  -0.1209  0.6280  0.0347  -0.9034   0.0000   0.8741
  -2.500   0.2070   0.00472   0.00085  -0.1210  0.6212  0.0383  -0.8431   0.0000   0.8399
  -2.400   0.2183   0.00473   0.00084  -0.1211  0.6133  0.0422  -0.7841   0.0000   0.8095
  -2.300   0.2297   0.00473   0.00084  -0.1212  0.6063  0.0476  -0.7259   0.0000   0.7821
  -2.200   0.2412   0.00471   0.00082  -0.1214  0.6006  0.0549  -0.6683   0.0000   0.7571
  -2.100   0.2526   0.00471   0.00082  -0.1215  0.5942  0.0594  -0.6118   0.0000   0.7344
  -2.000   0.2643   0.00469   0.00081  -0.1217  0.5899  0.0653  -0.5558   0.0000   0.7135
  -1.900   0.2758   0.00467   0.00080  -0.1219  0.5850  0.0749  -0.5471   0.0000   0.6945
  -1.800   0.2874   0.00466   0.00079  -0.1221  0.5807  0.0824  -0.5521   0.0000   0.6770
  -1.700   0.2991   0.00463   0.00078  -0.1222  0.5773  0.0918  -0.5571   0.0000   0.6607
  -1.600   0.3107   0.00460   0.00078  -0.1224  0.5733  0.1057  -0.5620   0.0000   0.6458
  -1.500   0.3224   0.00457   0.00076  -0.1226  0.5697  0.1181  -0.5675   0.0000   0.6319
  -1.400   0.3341   0.00454   0.00076  -0.1228  0.5664  0.1311  -0.5731   0.0000   0.6189
  -1.300   0.3456   0.00452   0.00075  -0.1230  0.5613  0.1448  -0.5785   0.0000   0.6069
  -1.200   0.3572   0.00447   0.00074  -0.1232  0.5561  0.1657  -0.5840   0.0000   0.5957
  -1.100   0.3686   0.00443   0.00074  -0.1234  0.5478  0.1939  -0.5893   0.0000   0.5854
  -0.900   0.3913   0.00435   0.00073  -0.1237  0.5303  0.2458  -0.6003   0.0000   0.5665
  -0.800   0.4025   0.00433   0.00073  -0.1239  0.5198  0.2699  -0.6060   0.0000   0.5578
  -0.700   0.4137   0.00434   0.00074  -0.1240  0.5097  0.2842  -0.6117   0.0000   0.5496
  -0.500   0.4360   0.00433   0.00075  -0.1242  0.4865  0.3298  -0.6230   0.0000   0.5346
  -0.400   0.4472   0.00429   0.00075  -0.1244  0.4753  0.3623  -0.6287   0.0000   0.5277
  -0.100   0.4805   0.00432   0.00079  -0.1247  0.4414  0.4155  -0.6461   0.0000   0.5086
   0.000   0.4915   0.00436   0.00081  -0.1248  0.4289  0.4233  -0.6528   0.0000   0.5028
   0.100   0.5023   0.00442   0.00084  -0.1248  0.4142  0.4318  -0.6631   0.0000   0.4973
   0.200   0.5132   0.00447   0.00085  -0.1248  0.4003  0.4425  -0.6677   0.0000   0.4920
   0.300   0.5243   0.00450   0.00087  -0.1249  0.3886  0.4549  -0.6719   0.0000   0.4869
   0.400   0.5354   0.00451   0.00089  -0.1250  0.3777  0.4722  -0.6812   0.0000   0.4820
   0.500   0.5466   0.00453   0.00091  -0.1251  0.3679  0.4882  -0.6894   0.0000   0.4773
   0.600   0.5579   0.00452   0.00092  -0.1253  0.3603  0.5092  -0.6955   0.0000   0.4728
   0.700   0.5693   0.00450   0.00093  -0.1255  0.3533  0.5318  -0.7013   0.0000   0.4685
   0.800   0.5806   0.00450   0.00095  -0.1256  0.3451  0.5520  -0.7097   0.0000   0.4644
   0.900   0.5917   0.00451   0.00097  -0.1257  0.3366  0.5689  -0.7192   0.0000   0.4604
   1.000   0.6029   0.00454   0.00099  -0.1258  0.3282  0.5801  -0.7274   0.0000   0.4565
   1.100   0.6140   0.00458   0.00101  -0.1259  0.3182  0.5876  -0.7362   0.0000   0.4527
   1.200   0.6250   0.00464   0.00104  -0.1259  0.3070  0.5950  -0.7456   0.0000   0.4491
   1.300   0.6359   0.00469   0.00107  -0.1260  0.2961  0.6030  -0.7554   0.0000   0.4456
   1.400   0.6470   0.00475   0.00111  -0.1260  0.2861  0.6080  -0.7652   0.0000   0.4422
   1.500   0.6580   0.00480   0.00113  -0.1261  0.2761  0.6152  -0.7751   0.0000   0.4389
   1.600   0.6690   0.00486   0.00117  -0.1261  0.2664  0.6190  -0.7858   0.0000   0.4357
   1.700   0.6799   0.00491   0.00120  -0.1262  0.2561  0.6251  -0.7969   0.0000   0.4327
   1.800   0.6906   0.00500   0.00124  -0.1261  0.2426  0.6288  -0.8078   0.0000   0.4297
   2.000   0.7120   0.00517   0.00133  -0.1261  0.2167  0.6352  -0.8298   0.0000   0.4240
   2.100   0.7227   0.00526   0.00137  -0.1261  0.2035  0.6381  -0.8413   0.0000   0.4212
   2.200   0.7336   0.00533   0.00141  -0.1261  0.1930  0.6401  -0.8540   0.0000   0.4186
   2.300   0.7444   0.00541   0.00145  -0.1261  0.1836  0.6413  -0.8667   0.0000   0.4160
   2.400   0.7554   0.00547   0.00149  -0.1262  0.1754  0.6438  -0.8843   0.0000   0.4135
   2.500   0.7663   0.00554   0.00153  -0.1262  0.1666  0.6465  -0.9036   0.0000   0.4110
   2.600   0.7772   0.00561   0.00157  -0.1262  0.1580  0.6487  -0.9241   0.0000   0.4087
   2.700   0.7881   0.00568   0.00161  -0.1262  0.1507  0.6505  -0.9479   0.0000   0.4063
   2.800   0.7991   0.00574   0.00165  -0.1263  0.1445  0.6517  -0.9741   0.0000   0.4041
   2.900   0.8101   0.00580   0.00169  -0.1263  0.1392  0.6526  -1.0007   0.0000   0.4019
   3.000   0.8212   0.00586   0.00172  -0.1264  0.1332  0.6543  -1.0299   0.0000   0.3998
   3.100   0.8320   0.00592   0.00177  -0.1264  0.1263  0.6565  -1.0634   0.0000   0.3977
   3.200   0.8429   0.00600   0.00181  -0.1264  0.1190  0.6583  -1.0971   0.0000   0.3956
   3.300   0.8537   0.00607   0.00185  -0.1264  0.1122  0.6597  -1.1312   0.0000   0.3936
   3.400   0.8645   0.00615   0.00190  -0.1264  0.1046  0.6609  -1.1712   0.0000   0.3917
   3.500   0.8752   0.00623   0.00195  -0.1264  0.0968  0.6618  -1.2134   0.0000   0.3898
   3.600   0.8859   0.00632   0.00201  -0.1264  0.0890  0.6626  -1.2558   0.0000   0.3879
   3.800   0.9076   0.00645   0.00210  -0.1264  0.0789  0.6637  -1.3428   0.0000   0.3843
   3.900   0.9184   0.00652   0.00215  -0.1264  0.0740  0.6642  -1.3867   0.0000   0.3826
   4.000   0.9293   0.00659   0.00219  -0.1264  0.0697  0.6657  -1.4312   0.0000   0.3809
   4.200   0.9509   0.00673   0.00229  -0.1264  0.0602  0.6686  -1.5253   0.0000   0.3776
   4.300   0.9616   0.00681   0.00234  -0.1264  0.0555  0.6697  -1.5828   0.0000   0.3760
   4.400   0.9723   0.00688   0.00240  -0.1264  0.0508  0.6707  -1.6408   0.0000   0.3744
   4.500   0.9831   0.00695   0.00245  -0.1264  0.0476  0.6716  -1.7012   0.0000   0.3729
   4.600   0.9939   0.00701   0.00250  -0.1264  0.0449  0.6724  -1.7666   0.0000   0.3714
   4.700   1.0047   0.00709   0.00255  -0.1264  0.0415  0.6731  -1.8322   0.0000   0.3699
   4.800   1.0156   0.00714   0.00260  -0.1264  0.0397  0.6736  -1.8994   0.0000   0.3685
   4.900   1.0263   0.00722   0.00265  -0.1264  0.0366  0.6741  -1.9664   0.0000   0.3671
   5.000   1.0371   0.00728   0.00270  -0.1264  0.0348  0.6745  -2.0347   0.0000   0.3657
   5.100   1.0478   0.00735   0.00276  -0.1264  0.0321  0.6748  -2.1034   0.0000   0.3643
   5.200   1.0585   0.00742   0.00281  -0.1264  0.0304  0.6750  -2.1730   0.0000   0.3630
   5.300   1.0692   0.00749   0.00286  -0.1264  0.0284  0.6753  -2.2432   0.0000   0.3617
   5.400   1.0800   0.00755   0.00292  -0.1264  0.0269  0.6763  -2.3144   0.0000   0.3604
   5.500   1.0906   0.00763   0.00298  -0.1264  0.0246  0.6774  -2.3857   0.0000   0.3591
   5.600   1.1013   0.00769   0.00303  -0.1264  0.0233  0.6784  -2.4582   0.0000   0.3579
   5.700   1.1119   0.00777   0.00310  -0.1263  0.0214  0.6794  -2.5310   0.0000   0.3566
   5.800   1.1227   0.00782   0.00315  -0.1263  0.0208  0.6803  -2.6054   0.0000   0.3554
   5.900   1.1332   0.00790   0.00321  -0.1263  0.0192  0.6811  -2.6794   0.0000   0.3542
   6.000   1.1438   0.00797   0.00327  -0.1263  0.0177  0.6819  -2.7602   0.0000   0.3530
   6.100   1.1544   0.00804   0.00333  -0.1262  0.0168  0.6826  -2.8426   0.0000   0.3519
   6.200   1.1649   0.00812   0.00340  -0.1262  0.0156  0.6832  -2.9254   0.0000   0.3507
   6.300   1.1756   0.00818   0.00345  -0.1262  0.0149  0.6837  -3.0099   0.0000   0.3496
   6.400   1.1862   0.00824   0.00351  -0.1262  0.0145  0.6842  -3.0952   0.0000   0.3485
   6.500   1.1967   0.00831   0.00357  -0.1261  0.0140  0.6846  -3.1809   0.0000   0.3474
   6.600   1.2072   0.00839   0.00363  -0.1261  0.0134  0.6850  -3.2672   0.0000   0.3464
   6.700   1.2177   0.00846   0.00370  -0.1260  0.0127  0.6853  -3.3545   0.0000   0.3453
   6.800   1.2283   0.00852   0.00376  -0.1260  0.0123  0.6856  -3.4430   0.0000   0.3443
   6.900   1.2389   0.00858   0.00381  -0.1260  0.0122  0.6858  -3.5326   0.0000   0.3432
   7.000   1.2494   0.00865   0.00387  -0.1260  0.0120  0.6860  -3.6228   0.0000   0.3422
   7.100   1.2598   0.00872   0.00394  -0.1259  0.0115  0.6862  -3.7133   0.0000   0.3412
   7.200   1.2700   0.00881   0.00402  -0.1258  0.0106  0.6863  -3.8032   0.0000   0.3402
   7.300   1.2803   0.00889   0.00409  -0.1257  0.0097  0.6864  -3.8947   0.0000   0.3392
   7.400   1.2906   0.00897   0.00415  -0.1256  0.0094  0.6871  -3.9873   0.0000   0.3382
   7.500   1.3008   0.00905   0.00423  -0.1256  0.0089  0.6878  -4.0802   0.0000   0.3373
   7.600   1.3109   0.00914   0.00431  -0.1255  0.0084  0.6887  -4.1735   0.0000   0.3363
   7.700   1.3211   0.00921   0.00438  -0.1254  0.0079  0.6895  -4.2678   0.0000   0.3354
   7.800   1.3314   0.00929   0.00445  -0.1253  0.0076  0.6902  -4.3636   0.0000   0.3345
   7.900   1.3417   0.00936   0.00452  -0.1252  0.0075  0.6910  -4.4603   0.0000   0.3335
   8.000   1.3519   0.00944   0.00459  -0.1251  0.0074  0.6916  -4.5575   0.0000   0.3326
   8.100   1.3620   0.00952   0.00467  -0.1250  0.0072  0.6922  -4.6553   0.0000   0.3317
   8.200   1.3720   0.00960   0.00475  -0.1249  0.0070  0.6928  -4.7533   0.0000   0.3308
   8.300   1.3820   0.00969   0.00483  -0.1248  0.0067  0.6933  -4.8517   0.0000   0.3299
   8.400   1.3919   0.00978   0.00491  -0.1246  0.0064  0.6938  -4.9506   0.0000   0.3291
   8.500   1.4019   0.00986   0.00500  -0.1245  0.0061  0.6943  -5.0502   0.0000   0.3282
   8.600   1.4118   0.00995   0.00508  -0.1244  0.0059  0.6948  -5.1504   0.0000   0.3273
   8.700   1.4217   0.01003   0.00516  -0.1242  0.0057  0.6952  -5.2511   0.0000   0.3265
   8.800   1.4317   0.01011   0.00523  -0.1241  0.0057  0.6955  -5.3573   0.0000   0.3256
   8.900   1.4416   0.01019   0.00531  -0.1240  0.0057  0.6959  -5.4683   0.0000   0.3248
   9.000   1.4515   0.01027   0.00539  -0.1238  0.0057  0.6961  -5.5801   0.0000   0.3240
   9.100   1.4614   0.01035   0.00547  -0.1237  0.0057  0.6964  -5.6926   0.0000   0.3231
   9.200   1.4712   0.01044   0.00555  -0.1235  0.0056  0.6966  -5.8058   0.0000   0.3223
   9.300   1.4809   0.01052   0.00563  -0.1234  0.0056  0.6968  -5.9197   0.0000   0.3215
   9.400   1.4906   0.01061   0.00571  -0.1232  0.0056  0.6970  -6.0341   0.0000   0.3207
   9.500   1.5003   0.01069   0.00580  -0.1230  0.0055  0.6971  -6.1492   0.0000   0.3199
   9.600   1.5098   0.01079   0.00588  -0.1228  0.0054  0.6973  -6.2647   0.0000   0.3191
   9.700   1.5193   0.01088   0.00597  -0.1226  0.0053  0.6974  -6.3806   0.0000   0.3183
   9.800   1.5286   0.01098   0.00607  -0.1224  0.0052  0.6975  -6.4967   0.0000   0.3175
   9.900   1.5379   0.01108   0.00617  -0.1221  0.0051  0.6976  -6.6131   0.0000   0.3167
  10.000   1.5471   0.01119   0.00627  -0.1219  0.0050  0.6976  -6.7299   0.0000   0.3159
  10.100   1.5563   0.01130   0.00637  -0.1216  0.0049  0.6982  -6.8470   0.0000   0.3151
  10.200   1.5653   0.01140   0.00648  -0.1213  0.0047  0.6988  -6.9645   0.0000   0.3143
  10.300   1.5744   0.01151   0.00658  -0.1210  0.0046  0.6994  -7.0825   0.0000   0.3136
  10.400   1.5834   0.01161   0.00669  -0.1207  0.0044  0.7001  -7.2009   0.0000   0.3128
  10.500   1.5918   0.01172   0.00679  -0.1203  0.0043  0.7008  -7.3170   0.0000   0.3120
  10.600   1.5996   0.01182   0.00689  -0.1198  0.0042  0.7015  -7.4328   0.0000   0.3111
  10.700   1.6075   0.01192   0.00700  -0.1193  0.0041  0.7021  -7.5550   0.0000   0.3102
  10.800   1.6156   0.01203   0.00711  -0.1188  0.0040  0.7026  -7.6789   0.0000   0.3094
  10.900   1.6238   0.01213   0.00721  -0.1183  0.0040  0.7032  -7.8056   0.0000   0.3086
  11.000   1.6320   0.01224   0.00732  -0.1179  0.0040  0.7036  -7.9327   0.0000   0.3078
  11.100   1.6401   0.01235   0.00743  -0.1174  0.0040  0.7041  -8.0602   0.0000   0.3070
  11.200   1.6481   0.01246   0.00754  -0.1170  0.0040  0.7045  -8.1880   0.0000   0.3062
  11.300   1.6560   0.01257   0.00765  -0.1165  0.0040  0.7050  -8.3161   0.0000   0.3054
  11.400   1.6639   0.01269   0.00777  -0.1160  0.0040  0.7054  -8.4447   0.0000   0.3046
  11.500   1.6717   0.01281   0.00789  -0.1155  0.0040  0.7058  -8.5736   0.0000   0.3038
  11.600   1.6794   0.01293   0.00801  -0.1150  0.0040  0.7061  -8.7030   0.0000   0.3030
  11.700   1.6871   0.01305   0.00813  -0.1145  0.0040  0.7065  -8.8329   0.0000   0.3023
  11.800   1.6947   0.01317   0.00826  -0.1140  0.0040  0.7068  -8.9631   0.0000   0.3015
  11.900   1.7023   0.01330   0.00839  -0.1135  0.0040  0.7071  -9.0939   0.0000   0.3007
  12.000   1.7098   0.01343   0.00852  -0.1129  0.0040  0.7073  -9.2252   0.0000   0.2999
  12.100   1.7173   0.01357   0.00865  -0.1124  0.0040  0.7075  -9.3570   0.0000   0.2992
  12.200   1.7248   0.01371   0.00879  -0.1119  0.0040  0.7077  -9.4891   0.0000   0.2984
  12.300   1.7322   0.01385   0.00894  -0.1114  0.0039  0.7079  -9.6220   0.0000   0.2976
  12.400   1.7395   0.01399   0.00908  -0.1108  0.0039  0.7081  -9.7551   0.0000   0.2969
  12.500   1.7468   0.01414   0.00923  -0.1103  0.0039  0.7082  -9.8885   0.0000   0.2961
  12.600   1.7540   0.01429   0.00938  -0.1097  0.0039  0.7083  -10.0223   0.0000   0.2954
  12.700   1.7612   0.01445   0.00954  -0.1092  0.0038  0.7084  -10.1568   0.0000   0.2947
  12.800   1.7683   0.01461   0.00970  -0.1087  0.0038  0.7085  -10.2912   0.0000   0.2939
  12.900   1.7753   0.01477   0.00987  -0.1081  0.0038  0.7086  -10.4258   0.0000   0.2932
  13.000   1.7822   0.01494   0.01004  -0.1075  0.0037  0.7087  -10.5603   0.0000   0.2924
  13.100   1.7891   0.01512   0.01022  -0.1069  0.0037  0.7088  -10.6953   0.0000   0.2917
  13.200   1.7959   0.01530   0.01040  -0.1064  0.0036  0.7088  -10.8305   0.0000   0.2910
  13.300   1.8025   0.01549   0.01059  -0.1058  0.0036  0.7089  -10.9654   0.0000   0.2902
  13.400   1.8091   0.01568   0.01078  -0.1052  0.0035  0.7092  -11.1002   0.0000   0.2895
  13.500   1.8156   0.01588   0.01099  -0.1046  0.0035  0.7097  -11.2345   0.0000   0.2888
  13.600   1.8220   0.01608   0.01119  -0.1039  0.0034  0.7102  -11.3697   0.0000   0.2880
  13.700   1.8284   0.01629   0.01140  -0.1033  0.0033  0.7107  -11.5049   0.0000   0.2873
  13.800   1.8348   0.01650   0.01162  -0.1027  0.0032  0.7113  -11.6406   0.0000   0.2866
  13.900   1.8412   0.01672   0.01183  -0.1021  0.0032  0.7119  -11.7769   0.0000   0.2859
  14.000   1.8474   0.01694   0.01206  -0.1015  0.0031  0.7125  -11.9121   0.0000   0.2852
  14.100   1.8536   0.01716   0.01228  -0.1009  0.0030  0.7130  -12.0482   0.0000   0.2845
  14.200   1.8597   0.01739   0.01251  -0.1002  0.0029  0.7135  -12.1840   0.0000   0.2838
  14.300   1.8657   0.01762   0.01275  -0.0996  0.0029  0.7140  -12.3199   0.0000   0.2831
  14.400   1.8718   0.01785   0.01299  -0.0990  0.0028  0.7145  -12.4568   0.0000   0.2824
  14.500   1.8777   0.01810   0.01324  -0.0984  0.0028  0.7149  -12.5928   0.0000   0.2817
  14.600   1.8836   0.01835   0.01350  -0.0977  0.0027  0.7153  -12.7292   0.0000   0.2810
  14.700   1.8895   0.01860   0.01376  -0.0971  0.0027  0.7156  -12.8657   0.0000   0.2803
  14.800   1.8952   0.01885   0.01402  -0.0964  0.0026  0.7160  -13.0024   0.0000   0.2796
  14.900   1.9012   0.01909   0.01426  -0.0958  0.0026  0.7163  -13.1432   0.0000   0.2789
  15.000   1.9071   0.01933   0.01451  -0.0953  0.0026  0.7166  -13.2846   0.0000   0.2782
  15.100   1.9129   0.01958   0.01477  -0.0946  0.0026  0.7169  -13.4252   0.0000   0.2776
  15.200   1.9188   0.01984   0.01503  -0.0940  0.0026  0.7172  -13.5671   0.0000   0.2769
  15.300   1.9246   0.02010   0.01529  -0.0935  0.0026  0.7175  -13.7093   0.0000   0.2762
  15.400   1.9303   0.02037   0.01557  -0.0928  0.0026  0.7177  -13.8503   0.0000   0.2756
  15.500   1.9360   0.02064   0.01584  -0.0922  0.0026  0.7180  -13.9926   0.0000   0.2749
  15.600   1.9416   0.02091   0.01612  -0.0916  0.0026  0.7182  -14.1351   0.0000   0.2743
  15.700   1.9469   0.02120   0.01641  -0.0910  0.0026  0.7185  -14.2751   0.0000   0.2736
  15.800   1.9523   0.02148   0.01671  -0.0904  0.0026  0.7187  -14.4159   0.0000   0.2729
  15.900   1.9576   0.02177   0.01700  -0.0898  0.0026  0.7189  -14.5573   0.0000   0.2723
  16.000   1.9627   0.02208   0.01732  -0.0891  0.0026  0.7191  -14.6970   0.0000   0.2716
  16.100   1.9678   0.02239   0.01763  -0.0885  0.0026  0.7192  -14.8383   0.0000   0.2710
  16.200   1.9730   0.02269   0.01794  -0.0879  0.0026  0.7194  -14.9804   0.0000   0.2703
  16.300   1.9779   0.02302   0.01828  -0.0872  0.0026  0.7195  -15.1201   0.0000   0.2697
  16.400   1.9829   0.02335   0.01861  -0.0866  0.0026  0.7196  -15.2614   0.0000   0.2690
  16.500   1.9880   0.02367   0.01894  -0.0860  0.0026  0.7198  -15.4037   0.0000   0.2684
  16.600   1.9926   0.02402   0.01930  -0.0853  0.0026  0.7199  -15.5431   0.0000   0.2678
  16.700   1.9974   0.02437   0.01965  -0.0847  0.0026  0.7199  -15.6839   0.0000   0.2671
  16.800   2.0021   0.02471   0.02000  -0.0841  0.0026  0.7200  -15.8249   0.0000   0.2665
  16.900   2.0063   0.02508   0.02038  -0.0834  0.0026  0.7201  -15.9620   0.0000   0.2658
  17.000   2.0107   0.02545   0.02076  -0.0828  0.0026  0.7201  -16.1009   0.0000   0.2652
  17.100   2.0152   0.02582   0.02113  -0.0821  0.0026  0.7202  -16.2412   0.0000   0.2646
  17.200   2.0193   0.02621   0.02154  -0.0815  0.0026  0.7204  -16.3782   0.0000   0.2639
  17.300   2.0235   0.02660   0.02194  -0.0808  0.0026  0.7209  -16.5173   0.0000   0.2633
  17.400   2.0278   0.02699   0.02234  -0.0802  0.0026  0.7213  -16.6576   0.0000   0.2627
  17.500   2.0317   0.02742   0.02277  -0.0796  0.0026  0.7218  -16.7941   0.0000   0.2621
  17.600   2.0358   0.02783   0.02320  -0.0789  0.0026  0.7223  -16.9331   0.0000   0.2615
  17.700   2.0399   0.02825   0.02362  -0.0783  0.0026  0.7228  -17.0729   0.0000   0.2609
  17.800   2.0436   0.02870   0.02409  -0.0777  0.0026  0.7233  -17.2088   0.0000   0.2603
  17.900   2.0475   0.02914   0.02454  -0.0771  0.0026  0.7238  -17.3476   0.0000   0.2597
  18.000   2.0513   0.02959   0.02499  -0.0765  0.0026  0.7243  -17.4863   0.0000   0.2591
  18.100   2.0546   0.03007   0.02549  -0.0759  0.0026  0.7248  -17.6199   0.0000   0.2585
  18.200   2.0582   0.03054   0.02596  -0.0753  0.0026  0.7252  -17.7569   0.0000   0.2579
  18.300   2.0616   0.03102   0.02646  -0.0747  0.0025  0.7256  -17.8923   0.0000   0.2573
  18.400   2.0648   0.03154   0.02699  -0.0740  0.0025  0.7260  -18.0257   0.0000   0.2567
  18.500   2.0683   0.03203   0.02749  -0.0735  0.0025  0.7264  -18.1631   0.0000   0.2561
  18.600   2.0714   0.03257   0.02804  -0.0729  0.0025  0.7268  -18.2966   0.0000   0.2555
  18.700   2.0744   0.03311   0.02860  -0.0723  0.0025  0.7271  -18.4297   0.0000   0.2550
  18.800   2.0778   0.03364   0.02914  -0.0717  0.0025  0.7275  -18.5664   0.0000   0.2544
  18.900   2.0805   0.03423   0.02973  -0.0712  0.0025  0.7278  -18.6970   0.0000   0.2538
  19.000   2.0834   0.03480   0.03032  -0.0706  0.0025  0.7281  -18.8300   0.0000   0.2533
  19.100   2.0863   0.03538   0.03091  -0.0701  0.0025  0.7284  -18.9639   0.0000   0.2527
  19.200   2.0886   0.03601   0.03156  -0.0695  0.0024  0.7287  -19.0916   0.0000   0.2522
  19.300   2.0914   0.03662   0.03217  -0.0690  0.0024  0.7290  -19.2239   0.0000   0.2516
  19.400   2.0937   0.03726   0.03283  -0.0685  0.0024  0.7292  -19.3522   0.0000   0.2511
  19.500   2.0958   0.03793   0.03352  -0.0679  0.0024  0.7295  -19.4787   0.0000   0.2505
  19.600   2.0981   0.03858   0.03417  -0.0674  0.0024  0.7297  -19.6074   0.0000   0.2500
  19.700   2.0996   0.03931   0.03491  -0.0668  0.0024  0.7299  -19.7273   0.0000   0.2494
  19.800   2.1015   0.04000   0.03562  -0.0663  0.0023  0.7301  -19.8523   0.0000   0.2489
  19.900   2.1030   0.04075   0.03638  -0.0658  0.0023  0.7303  -19.9730   0.0000   0.2484
  20.000   2.1044   0.04151   0.03716  -0.0653  0.0023  0.7304  -20.0949   0.0000   0.2479


