xflr5 v6.32

 Calculated polar for: foil1 modified

 1 1 Reynolds number fixed          Mach number fixed         

 xtrf =   1.000 (top)        1.000 (bottom)
 Mach =   0.000     Re =     0.160 e 6     Ncrit =   9.000

  alpha     CL        CD       CDp       Cm    Top Xtr Bot Xtr   Cpmin    Chinge    XCp    
 ------- -------- --------- --------- -------- ------- ------- -------- --------- ---------
 -14.300  -0.3955   0.15633   0.15195  -0.0455  1.0000  0.0505  -1.5646   0.0000   0.1117
 -14.200  -0.3977   0.15500   0.15063  -0.0467  1.0000  0.0511  -1.6086   0.0000   0.1096
 -14.100  -0.4033   0.15366   0.14932  -0.0484  1.0000  0.0514  -1.6835   0.0000   0.1074
 -14.000  -0.4100   0.15215   0.14783  -0.0504  1.0000  0.0516  -1.7713   0.0000   0.1051
 -13.900  -0.4040   0.15069   0.14638  -0.0497  1.0000  0.0518  -1.7211   0.0000   0.1048
 -13.800  -0.3970   0.14947   0.14515  -0.0489  1.0000  0.0521  -1.6586   0.0000   0.1047
 -13.700  -0.3926   0.14835   0.14403  -0.0485  1.0000  0.0524  -1.6204   0.0000   0.1043
 -13.600  -0.3897   0.14727   0.14296  -0.0483  1.0000  0.0528  -1.5963   0.0000   0.1039
 -13.500  -0.3879   0.14622   0.14191  -0.0482  1.0000  0.0533  -1.5811   0.0000   0.1036
 -13.400  -0.3868   0.14517   0.14087  -0.0482  1.0000  0.0538  -1.5724   0.0000   0.1034
 -13.300  -0.3865   0.14412   0.13984  -0.0482  1.0000  0.0543  -1.5688   0.0000   0.1036
 -13.200  -0.3868   0.14308   0.13881  -0.0482  1.0000  0.0548  -1.5734   0.0000   0.1039
 -13.100  -0.3879   0.14201   0.13776  -0.0482  1.0000  0.0554  -1.5848   0.0000   0.1045
 -13.000  -0.3902   0.14092   0.13668  -0.0483  1.0000  0.0561  -1.6061   0.0000   0.1052
 -12.900  -0.3951   0.13976   0.13555  -0.0487  1.0000  0.0567  -1.6498   0.0000   0.1062
 -12.800  -0.4038   0.13851   0.13434  -0.0495  1.0000  0.0571  -1.7236   0.0000   0.1074
 -12.700  -0.4140   0.13720   0.13306  -0.0503  1.0000  0.0573  -1.8079   0.0000   0.1090
 -11.300  -0.4535   0.12238   0.11849  -0.0461  1.0000  0.0632  -1.9750   0.0000   0.1326
 -10.100  -0.4873   0.10839   0.10470  -0.0431  1.0000  0.0693  -2.0690   0.0000   0.1486
 -10.000  -0.5049   0.10565   0.10200  -0.0452  1.0000  0.0695  -2.1869   0.0000   0.1480
  -9.900  -0.5217   0.10279   0.09918  -0.0473  1.0000  0.0695  -2.2949   0.0000   0.1473
  -9.100  -0.5106   0.09746   0.09391  -0.0386  1.0000  0.0737  -2.0522   0.0000   0.1632
  -9.000  -0.5196   0.09567   0.09215  -0.0391  1.0000  0.0742  -2.0940   0.0000   0.1638
  -8.900  -0.5313   0.09353   0.09005  -0.0401  1.0000  0.0747  -2.1525   0.0000   0.1640
  -8.800  -0.5451   0.09069   0.08722  -0.0422  0.9996  0.0750  -2.2299   0.0000   0.1623
  -8.700  -0.5611   0.08677   0.08327  -0.0471  0.9974  0.0753  -2.3423   0.0000   0.1561
  -8.600  -0.5759   0.08427   0.08073  -0.0497  0.9950  0.0754  -2.4194   0.0000   0.1541
  -8.500  -0.5916   0.08169   0.07809  -0.0528  0.9920  0.0756  -2.5047   0.0000   0.1515
  -8.400  -0.6174   0.07782   0.07393  -0.0587  0.9871  0.0760  -2.6853   0.0000   0.1460
  -6.000  -0.4603   0.03890   0.03235  -0.0757  0.9522  0.0712  -2.5953   0.0000   0.0770
  -5.900  -0.4490   0.03903   0.03260  -0.0767  0.9511  0.0793  -2.4781   0.0000   0.0705
  -5.800  -0.4409   0.03909   0.03263  -0.0775  0.9493  0.0911  -2.3870   0.0000   0.0657
  -5.700  -0.4327   0.03884   0.03243  -0.0778  0.9476  0.0987  -2.3130   0.0000   0.0616
  -5.600  -0.4222   0.03854   0.03222  -0.0786  0.9464  0.1073  -2.2345   0.0000   0.0553
  -5.500  -0.4103   0.03835   0.03202  -0.0800  0.9453  0.1218  -2.1523   0.0000   0.0465
  -5.400  -0.4019   0.03795   0.03172  -0.0803  0.9438  0.1311  -2.0876   0.0000   0.0417
  -5.200  -0.3488   0.02878   0.02034  -0.0780  0.9456  0.0455  -2.7911   0.0000   0.0163
  -5.100  -0.3340   0.02828   0.01974  -0.0786  0.9449  0.0458  -2.7507   0.0000   0.0042
  -5.000  -0.3260   0.02793   0.01932  -0.0781  0.9429  0.0460  -2.7211   0.0000   0.0002
  -4.900  -0.3147   0.02744   0.01884  -0.0782  0.9416  0.0467  -2.6717   0.0000  -0.0090
  -4.800  -0.3021   0.02708   0.01854  -0.0787  0.9405  0.0479  -2.6051   0.0000  -0.0212
  -4.700  -0.2882   0.02677   0.01825  -0.0794  0.9396  0.0492  -2.5426   0.0000  -0.0363
  -4.600  -0.2745   0.02647   0.01790  -0.0799  0.9386  0.0506  -2.4916   0.0000  -0.0522
  -4.500  -0.2665   0.02626   0.01761  -0.0793  0.9364  0.0514  -2.4579   0.0000  -0.0588
  -4.400  -0.2548   0.02583   0.01725  -0.0796  0.9352  0.0524  -2.4061   0.0000  -0.0738
  -4.300  -0.2414   0.02549   0.01696  -0.0801  0.9341  0.0537  -2.3479   0.0000  -0.0938
  -4.200  -0.2268   0.02519   0.01667  -0.0809  0.9333  0.0554  -2.2916   0.0000  -0.1189
  -4.100  -0.2162   0.02496   0.01640  -0.0809  0.9316  0.0570  -2.2493   0.0000  -0.1368
  -4.000  -0.2062   0.02462   0.01614  -0.0810  0.9299  0.0588  -2.1998   0.0000  -0.1559
  -3.900  -0.1928   0.02435   0.01590  -0.0817  0.9286  0.0617  -2.1537   0.0000  -0.1870
  -3.800  -0.1779   0.02403   0.01564  -0.0828  0.9277  0.0660  -2.1048   0.0000  -0.2295
  -3.700  -0.1618   0.02372   0.01536  -0.0841  0.9269  0.0719  -2.0558   0.0000  -0.2851
  -3.600  -0.1496   0.02343   0.01512  -0.0847  0.9253  0.0786  -2.0176   0.0000  -0.3322
  -3.500  -0.1375   0.02312   0.01485  -0.0854  0.9235  0.0891  -1.9819   0.0000  -0.3875
  -3.400  -0.1196   0.02241   0.01441  -0.0875  0.9226  0.1234  -1.9424   0.0000  -0.4996
  -3.300  -0.1030   0.02059   0.01515  -0.0896  0.9230  0.6085  -1.8969   0.0000  -0.6407
  -3.200  -0.0950   0.02120   0.01579  -0.0881  0.9210  0.6466  -1.8434   0.0000  -0.6998
  -3.100  -0.0838   0.02179   0.01633  -0.0874  0.9196  0.6682  -1.7786   0.0000  -0.8175
  -3.000  -0.0810   0.02222   0.01673  -0.0856  0.9163  0.6784  -1.7381   0.0000  -0.8310
  -2.900  -0.0722   0.02275   0.01722  -0.0844  0.9145  0.6891  -1.6786   0.0000  -0.9467
  -2.800  -0.0615   0.02329   0.01772  -0.0836  0.9131  0.6993  -1.6134   0.0000  -1.1391
  -2.700  -0.0610   0.02372   0.01815  -0.0811  0.9097  0.7043  -1.5782   0.0000  -1.1092
  -2.600  -0.0531   0.02416   0.01857  -0.0798  0.9077  0.7120  -1.5213   0.0000  -1.2873
  -2.500  -0.0420   0.02460   0.01896  -0.0792  0.9064  0.7210  -1.4558   0.0000  -1.6749
  -2.400  -0.0421   0.02498   0.01936  -0.0764  0.9030  0.7246  -1.4222   0.0000  -1.6022
  -2.300  -0.0343   0.02535   0.01970  -0.0752  0.9009  0.7329  -1.3669   0.0000  -1.9865
  -2.200  -0.0282   0.02577   0.02012  -0.0732  0.8994  0.7392  -1.3145   0.0000  -2.4021
  -2.100  -0.0256   0.02610   0.02044  -0.0710  0.8965  0.7460  -1.2744   0.0000  -2.5822
  -2.000  -0.0204   0.02645   0.02078  -0.0693  0.8940  0.7552  -1.2271   0.0000  -3.2179
  -1.900  -0.0175   0.02676   0.02111  -0.0664  0.8923  0.7618  -1.1841   0.0000  -3.6098
  -1.800  -0.0135   0.02703   0.02138  -0.0641  0.8904  0.7702  -1.1394   0.0000  -4.6093
  -1.700  -0.0112   0.02725   0.02159  -0.0622  0.8871  0.7787  -1.1023   0.0000  -5.3968
  -1.600  -0.0073   0.02739   0.02172  -0.0598  0.8852  0.7854  -1.0587   0.0000  -8.0995
  -1.500   0.0016   0.02745   0.02176  -0.0587  0.8840  0.7925  -1.0034   0.0000  37.0101
  -1.400   0.0043   0.02754   0.02183  -0.0571  0.8807  0.7976  -0.9671   0.0000  13.7339
  -1.300   0.0156   0.02754   0.02179  -0.0573  0.8787  0.8019  -0.9094   0.0000   3.9892
  -1.200   0.0265   0.02747   0.02169  -0.0571  0.8772  0.8041  -0.8524   0.0000   2.4408
  -1.100   0.0406   0.02740   0.02158  -0.0576  0.8762  0.8064  -0.7884   0.0000   1.6895
  -1.000   0.0472   0.02744   0.02159  -0.0572  0.8729  0.8091  -0.7457   0.0000   1.4800
  -0.900   0.0623   0.02746   0.02156  -0.0586  0.8709  0.8120  -0.6835   0.0000   1.2017
  -0.800   0.0736   0.02735   0.02142  -0.0585  0.8694  0.8136  -0.6341   0.0000   1.0535
  -0.700   0.0867   0.02725   0.02130  -0.0588  0.8684  0.8154  -0.5815   0.0000   0.9341
  -0.500   0.1038   0.02726   0.02126  -0.0583  0.8629  0.8199  -0.4996   0.0000   0.8161
  -0.400   0.1198   0.02722   0.02119  -0.0596  0.8615  0.8221  -0.4469   0.0000   0.7505
  -0.300   0.1359   0.02716   0.02109  -0.0607  0.8605  0.8240  -0.4553   0.0000   0.6991
  -0.200   0.1483   0.02705   0.02096  -0.0609  0.8593  0.8254  -0.4622   0.0000   0.6620
  -0.100   0.1507   0.02709   0.02100  -0.0596  0.8549  0.8274  -0.4633   0.0000   0.6464
   0.000   0.1642   0.02702   0.02090  -0.0601  0.8534  0.8291  -0.4709   0.0000   0.6166
   0.100   0.1799   0.02694   0.02080  -0.0611  0.8523  0.8308  -0.4796   0.0000   0.5897
   0.200   0.1972   0.02686   0.02069  -0.0624  0.8515  0.8324  -0.4891   0.0000   0.5663
   0.300   0.2037   0.02702   0.02083  -0.0624  0.8469  0.8345  -0.4922   0.0000   0.5555
   0.400   0.2151   0.02690   0.02070  -0.0624  0.8452  0.8358  -0.4993   0.0000   0.5390
   0.500   0.2288   0.02677   0.02057  -0.0628  0.8441  0.8371  -0.5075   0.0000   0.5232
   0.600   0.2437   0.02665   0.02043  -0.0635  0.8432  0.8385  -0.5165   0.0000   0.5089
   0.700   0.2472   0.02678   0.02055  -0.0625  0.8386  0.8404  -0.5187   0.0000   0.5012
   0.800   0.2614   0.02671   0.02048  -0.0633  0.8369  0.8419  -0.5270   0.0000   0.4901
   0.900   0.2777   0.02662   0.02037  -0.0644  0.8357  0.8434  -0.5372   0.0000   0.4797
   1.000   0.2955   0.02653   0.02026  -0.0658  0.8348  0.8448  -0.5482   0.0000   0.4704
   1.200   0.3121   0.02650   0.02024  -0.0652  0.8284  0.8474  -0.5597   0.0000   0.4562
   1.300   0.3266   0.02636   0.02009  -0.0657  0.8272  0.8486  -0.5694   0.0000   0.4485
   1.400   0.3423   0.02620   0.01993  -0.0665  0.8262  0.8497  -0.5806   0.0000   0.4415
   1.500   0.3583   0.02606   0.01978  -0.0674  0.8253  0.8510  -0.5918   0.0000   0.4351
   1.600   0.3614   0.02625   0.01998  -0.0666  0.8198  0.8526  -0.5950   0.0000   0.4309
   1.700   0.3776   0.02613   0.01985  -0.0676  0.8186  0.8538  -0.6063   0.0000   0.4256
   1.800   0.3950   0.02599   0.01971  -0.0688  0.8177  0.8550  -0.6184   0.0000   0.4208
   1.900   0.4132   0.02583   0.01955  -0.0701  0.8169  0.8561  -0.6321   0.0000   0.4163
   2.100   0.4284   0.02579   0.01954  -0.0691  0.8099  0.8584  -0.6467   0.0000   0.4076
   2.200   0.4442   0.02558   0.01934  -0.0699  0.8089  0.8594  -0.6594   0.0000   0.4034
   2.300   0.4612   0.02536   0.01912  -0.0708  0.8081  0.8604  -0.6730   0.0000   0.3996
   2.500   0.4801   0.02537   0.01916  -0.0707  0.8011  0.8628  -0.6922   0.0000   0.3931
   2.600   0.4974   0.02516   0.01896  -0.0718  0.8001  0.8638  -0.7073   0.0000   0.3900
   2.700   0.5157   0.02492   0.01874  -0.0730  0.7994  0.8648  -0.7231   0.0000   0.3872
   2.800   0.5348   0.02467   0.01850  -0.0743  0.7988  0.8657  -0.7395   0.0000   0.3846
   3.000   0.5520   0.02460   0.01847  -0.0737  0.7914  0.8679  -0.7595   0.0000   0.3789
   3.100   0.5690   0.02428   0.01817  -0.0745  0.7906  0.8688  -0.7766   0.0000   0.3762
   3.200   0.5869   0.02393   0.01784  -0.0754  0.7900  0.8697  -0.7950   0.0000   0.3738
   3.300   0.6055   0.02356   0.01751  -0.0765  0.7895  0.8705  -0.8179   0.0000   0.3715
   3.500   0.6249   0.02344   0.01743  -0.0762  0.7819  0.8725  -0.8536   0.0000   0.3669
   3.600   0.6437   0.02307   0.01709  -0.0773  0.7812  0.8733  -0.8835   0.0000   0.3651
   3.700   0.6623   0.02269   0.01673  -0.0784  0.7806  0.8741  -0.9150   0.0000   0.3632
   3.800   0.6811   0.02230   0.01637  -0.0795  0.7799  0.8750  -0.9497   0.0000   0.3616
   4.000   0.7025   0.02208   0.01621  -0.0795  0.7723  0.8769  -1.0034   0.0000   0.3577
   4.100   0.7196   0.02164   0.01581  -0.0802  0.7713  0.8777  -1.0431   0.0000   0.3559
   4.200   0.7374   0.02120   0.01539  -0.0810  0.7705  0.8784  -1.0880   0.0000   0.3542
   4.400   0.7579   0.02090   0.01517  -0.0806  0.7627  0.8804  -1.1545   0.0000   0.3505
   4.500   0.7759   0.02047   0.01477  -0.0815  0.7615  0.8812  -1.2109   0.0000   0.3491
   4.800   0.8188   0.01959   0.01400  -0.0826  0.7520  0.8839  -1.3620   0.0000   0.3447
   4.900   0.8294   0.01942   0.01387  -0.0825  0.7467  0.8847  -1.4057   0.0000   0.3432
   5.000   0.8472   0.01893   0.01341  -0.0833  0.7431  0.8855  -1.4711   0.0000   0.3419
   5.100   0.8613   0.01856   0.01307  -0.0835  0.7383  0.8862  -1.5373   0.0000   0.3405
   5.200   0.8744   0.01818   0.01271  -0.0834  0.7332  0.8870  -1.6016   0.0000   0.3389
   5.300   0.8857   0.01789   0.01247  -0.0832  0.7274  0.8879  -1.6619   0.0000   0.3373
   5.400   0.9005   0.01751   0.01211  -0.0835  0.7222  0.8887  -1.7322   0.0000   0.3359
   5.500   0.9098   0.01735   0.01199  -0.0830  0.7151  0.8897  -1.7880   0.0000   0.3344
   5.600   0.9242   0.01705   0.01170  -0.0833  0.7091  0.8904  -1.8586   0.0000   0.3332
   5.700   0.9361   0.01684   0.01152  -0.0833  0.7017  0.8912  -1.9250   0.0000   0.3319
   5.800   0.9463   0.01672   0.01143  -0.0830  0.6933  0.8920  -1.9895   0.0000   0.3305
   5.900   0.9576   0.01657   0.01130  -0.0829  0.6846  0.8928  -2.0585   0.0000   0.3293
   6.000   0.9695   0.01643   0.01119  -0.0829  0.6753  0.8937  -2.1297   0.0000   0.3281
   6.100   0.9811   0.01632   0.01108  -0.0829  0.6649  0.8946  -2.2010   0.0000   0.3270
   6.200   0.9921   0.01622   0.01099  -0.0828  0.6535  0.8954  -2.2710   0.0000   0.3258
   6.300   1.0017   0.01613   0.01088  -0.0824  0.6416  0.8963  -2.3374   0.0000   0.3244
   6.400   1.0114   0.01605   0.01080  -0.0819  0.6286  0.8971  -2.4046   0.0000   0.3231
   6.500   1.0212   0.01601   0.01072  -0.0816  0.6145  0.8979  -2.4725   0.0000   0.3218
   6.600   1.0293   0.01603   0.01072  -0.0809  0.5987  0.8987  -2.5353   0.0000   0.3205
   6.800   1.0458   0.01616   0.01074  -0.0798  0.5631  0.9004  -2.6636   0.0000   0.3179
   6.900   1.0531   0.01628   0.01080  -0.0792  0.5432  0.9013  -2.7250   0.0000   0.3166
   7.000   1.0598   0.01646   0.01088  -0.0784  0.5217  0.9023  -2.7845   0.0000   0.3153
   7.100   1.0655   0.01668   0.01100  -0.0775  0.4987  0.9032  -2.8413   0.0000   0.3140
   7.200   1.0704   0.01695   0.01116  -0.0765  0.4745  0.9041  -2.8951   0.0000   0.3126
   7.300   1.0728   0.01722   0.01131  -0.0751  0.4511  0.9050  -2.9438   0.0000   0.3110
   7.400   1.0746   0.01752   0.01149  -0.0736  0.4273  0.9059  -2.9913   0.0000   0.3093
   7.500   1.0760   0.01789   0.01172  -0.0721  0.4026  0.9068  -3.0375   0.0000   0.3077
   7.600   1.0776   0.01832   0.01202  -0.0707  0.3766  0.9077  -3.0841   0.0000   0.3062
   7.700   1.0790   0.01880   0.01236  -0.0694  0.3496  0.9087  -3.1297   0.0000   0.3047
   7.800   1.0800   0.01934   0.01274  -0.0681  0.3225  0.9098  -3.1739   0.0000   0.3033
   7.900   1.0809   0.01992   0.01317  -0.0669  0.2947  0.9108  -3.2173   0.0000   0.3020
   8.000   1.0817   0.02054   0.01362  -0.0657  0.2665  0.9119  -3.2599   0.0000   0.3007
   8.100   1.0824   0.02121   0.01412  -0.0645  0.2384  0.9128  -3.3016   0.0000   0.2994
   8.200   1.0822   0.02187   0.01461  -0.0632  0.2126  0.9137  -3.3398   0.0000   0.2980
   8.300   1.0825   0.02255   0.01513  -0.0619  0.1875  0.9146  -3.3788   0.0000   0.2968
   8.400   1.0832   0.02326   0.01568  -0.0608  0.1656  0.9155  -3.4183   0.0000   0.2955
   8.500   1.0843   0.02396   0.01624  -0.0597  0.1477  0.9164  -3.4585   0.0000   0.2943
   8.600   1.0858   0.02466   0.01682  -0.0587  0.1336  0.9174  -3.4993   0.0000   0.2932
   8.700   1.0877   0.02535   0.01741  -0.0578  0.1221  0.9184  -3.5412   0.0000   0.2921
   8.800   1.0897   0.02604   0.01802  -0.0569  0.1131  0.9194  -3.5836   0.0000   0.2910
   8.900   1.0928   0.02669   0.01861  -0.0561  0.1047  0.9204  -3.6287   0.0000   0.2900
   9.000   1.0956   0.02732   0.01919  -0.0553  0.0980  0.9213  -3.6735   0.0000   0.2890
   9.100   1.0983   0.02793   0.01976  -0.0545  0.0923  0.9222  -3.7184   0.0000   0.2880
   9.200   1.1021   0.02850   0.02032  -0.0537  0.0868  0.9232  -3.7654   0.0000   0.2870
   9.300   1.1058   0.02909   0.02091  -0.0530  0.0821  0.9241  -3.8115   0.0000   0.2861
   9.400   1.1091   0.02972   0.02149  -0.0523  0.0784  0.9249  -3.8585   0.0000   0.2851
   9.500   1.1137   0.03027   0.02205  -0.0517  0.0745  0.9258  -3.9082   0.0000   0.2843
   9.600   1.1179   0.03088   0.02265  -0.0511  0.0712  0.9267  -3.9559   0.0000   0.2834
   9.700   1.1224   0.03147   0.02321  -0.0506  0.0683  0.9277  -4.0064   0.0000   0.2826
   9.900   1.1318   0.03259   0.02435  -0.0494  0.0630  0.9297  -4.1052   0.0000   0.2809
  10.000   1.1361   0.03320   0.02490  -0.0488  0.0610  0.9308  -4.1558   0.0000   0.2800
  10.100   1.1418   0.03369   0.02546  -0.0482  0.0586  0.9320  -4.2136   0.0000   0.2792
  10.200   1.1470   0.03425   0.02598  -0.0477  0.0568  0.9333  -4.2765   0.0000   0.2785
  10.300   1.1532   0.03484   0.02658  -0.0473  0.0551  0.9344  -4.3353   0.0000   0.2777
  10.400   1.1598   0.03538   0.02717  -0.0468  0.0533  0.9356  -4.3949   0.0000   0.2769
  10.500   1.1663   0.03590   0.02766  -0.0464  0.0519  0.9368  -4.4610   0.0000   0.2762
  10.600   1.1742   0.03647   0.02817  -0.0461  0.0505  0.9380  -4.5310   0.0000   0.2756
  10.700   1.1810   0.03699   0.02880  -0.0456  0.0490  0.9392  -4.5876   0.0000   0.2748
  10.800   1.1881   0.03751   0.02934  -0.0453  0.0476  0.9405  -4.6542   0.0000   0.2741
  10.900   1.1965   0.03803   0.02979  -0.0451  0.0464  0.9418  -4.7348   0.0000   0.2736
  11.100   1.2119   0.03916   0.03106  -0.0444  0.0439  0.9448  -4.8598   0.0000   0.2723
  11.200   1.2200   0.03969   0.03162  -0.0441  0.0429  0.9467  -4.9296   0.0000   0.2717
  11.300   1.2300   0.04023   0.03215  -0.0441  0.0420  0.9488  -5.0105   0.0000   0.2712
  11.400   1.2457   0.04089   0.03273  -0.0445  0.0410  0.9508  -5.1111   0.0000   0.2710
  11.500   1.2525   0.04159   0.03359  -0.0440  0.0404  0.9537  -5.1563   0.0000   0.2703
  11.600   1.2608   0.04232   0.03445  -0.0437  0.0397  0.9575  -5.2091   0.0000   0.2696
  11.700   1.2692   0.04303   0.03526  -0.0434  0.0391  0.9638  -5.2661   0.0000   0.2690
  11.800   1.2763   0.04365   0.03595  -0.0430  0.0385  0.9972  -5.3250   0.0000   0.2684
  11.900   1.2884   0.04437   0.03667  -0.0433  0.0378  1.0000  -5.4247   0.0000   0.2682
  12.000   1.3043   0.04517   0.03740  -0.0442  0.0370  1.0000  -5.5515   0.0000   0.2683
  12.100   1.3121   0.04623   0.03857  -0.0441  0.0364  1.0000  -5.6152   0.0000   0.2679
  12.200   1.3135   0.04721   0.03974  -0.0432  0.0360  1.0000  -5.6447   0.0000   0.2671
  12.300   1.3159   0.04823   0.04093  -0.0426  0.0355  1.0000  -5.6800   0.0000   0.2663
  12.400   1.3190   0.04927   0.04211  -0.0420  0.0351  1.0000  -5.7208   0.0000   0.2657
  12.500   1.3226   0.05032   0.04329  -0.0415  0.0347  1.0000  -5.7657   0.0000   0.2650
  12.600   1.3266   0.05142   0.04451  -0.0411  0.0344  1.0000  -5.8110   0.0000   0.2645
  12.700   1.3304   0.05257   0.04577  -0.0406  0.0341  1.0000  -5.8545   0.0000   0.2639
  12.800   1.3337   0.05373   0.04704  -0.0402  0.0339  1.0000  -5.8968   0.0000   0.2633
  12.900   1.3367   0.05491   0.04833  -0.0397  0.0337  1.0000  -5.9378   0.0000   0.2628
  13.000   1.3393   0.05612   0.04964  -0.0392  0.0335  1.0000  -5.9775   0.0000   0.2622
  13.100   1.3416   0.05736   0.05097  -0.0387  0.0334  1.0000  -6.0157   0.0000   0.2616
  13.200   1.3435   0.05863   0.05234  -0.0383  0.0332  1.0000  -6.0516   0.0000   0.2611
  13.300   1.3447   0.05995   0.05376  -0.0377  0.0331  1.0000  -6.0835   0.0000   0.2605
  13.400   1.3448   0.06133   0.05525  -0.0372  0.0331  1.0000  -6.1077   0.0000   0.2599
  13.500   1.3427   0.06280   0.05684  -0.0365  0.0330  1.0000  -6.1182   0.0000   0.2593
  13.600   1.3376   0.06439   0.05858  -0.0356  0.0330  1.0000  -6.1086   0.0000   0.2586
  13.700   1.3295   0.06615   0.06052  -0.0346  0.0331  1.0000  -6.0782   0.0000   0.2578
  13.800   1.3197   0.06807   0.06263  -0.0336  0.0333  1.0000  -6.0343   0.0000   0.2571
  13.900   1.3089   0.07013   0.06487  -0.0327  0.0334  1.0000  -5.9839   0.0000   0.2564
  14.000   1.2980   0.07228   0.06720  -0.0320  0.0336  1.0000  -5.9321   0.0000   0.2559
  14.100   1.2871   0.07450   0.06959  -0.0314  0.0338  1.0000  -5.8813   0.0000   0.2554
  14.200   1.2764   0.07676   0.07200  -0.0310  0.0340  1.0000  -5.8322   0.0000   0.2551
  14.300   1.2649   0.07911   0.07450  -0.0307  0.0342  1.0000  -5.7797   0.0000   0.2549
  14.400   1.2532   0.08153   0.07706  -0.0306  0.0343  1.0000  -5.7269   0.0000   0.2549
  14.500   1.2418   0.08400   0.07966  -0.0307  0.0345  1.0000  -5.6765   0.0000   0.2550
  14.600   1.2307   0.08651   0.08229  -0.0309  0.0347  1.0000  -5.6277   0.0000   0.2552
  14.700   1.2198   0.08908   0.08497  -0.0313  0.0349  1.0000  -5.5801   0.0000   0.2556
  14.800   1.2090   0.09169   0.08769  -0.0319  0.0350  1.0000  -5.5333   0.0000   0.2561
  14.900   1.1984   0.09434   0.09044  -0.0326  0.0352  1.0000  -5.4870   0.0000   0.2567
  15.000   1.1880   0.09708   0.09327  -0.0335  0.0353  1.0000  -5.4410   0.0000   0.2575
  15.100   1.1779   0.09989   0.09617  -0.0346  0.0355  1.0000  -5.3951   0.0000   0.2584
  15.200   1.1681   0.10278   0.09915  -0.0358  0.0356  1.0000  -5.3496   0.0000   0.2595
  15.300   1.1586   0.10574   0.10218  -0.0372  0.0358  1.0000  -5.3046   0.0000   0.2608
  15.400   1.1496   0.10874   0.10525  -0.0387  0.0359  1.0000  -5.2606   0.0000   0.2621
  15.500   1.1411   0.11176   0.10834  -0.0403  0.0360  1.0000  -5.2182   0.0000   0.2636
  15.600   1.1334   0.11477   0.11140  -0.0419  0.0362  1.0000  -5.1788   0.0000   0.2650
  15.700   1.1266   0.11770   0.11438  -0.0435  0.0363  1.0000  -5.1441   0.0000   0.2665
  15.800   1.1211   0.12050   0.11722  -0.0450  0.0364  1.0000  -5.1163   0.0000   0.2679
  15.900   1.1171   0.12309   0.11984  -0.0463  0.0365  1.0000  -5.0983   0.0000   0.2690
  16.000   1.1151   0.12539   0.12216  -0.0474  0.0366  1.0000  -5.0928   0.0000   0.2698
  16.700   0.9406   0.20545   0.20244  -0.0984  0.0691  1.0000  -2.2612   0.0000   0.3334
  16.800   0.9452   0.20669   0.20369  -0.0988  0.0684  1.0000  -2.2896   0.0000   0.3331
  16.900   0.9512   0.20767   0.20468  -0.0986  0.0678  1.0000  -2.3367   0.0000   0.3322
  17.000   0.9589   0.20841   0.20544  -0.0979  0.0674  1.0000  -2.4050   0.0000   0.3303
  17.100   0.9663   0.20949   0.20653  -0.0971  0.0672  1.0000  -2.4672   0.0000   0.3286
  17.200   0.9503   0.21497   0.21195  -0.1045  0.0656  1.0000  -2.2199   0.0000   0.3380
  17.300   0.9516   0.21687   0.21384  -0.1060  0.0644  1.0000  -2.2029   0.0000   0.3393
  17.400   0.9548   0.21840   0.21537  -0.1069  0.0635  1.0000  -2.2111   0.0000   0.3397
  17.500   0.9596   0.21963   0.21661  -0.1073  0.0627  1.0000  -2.2401   0.0000   0.3393
  17.600   0.9668   0.22051   0.21750  -0.1068  0.0621  1.0000  -2.3030   0.0000   0.3378
  17.700   0.9780   0.22075   0.21778  -0.1047  0.0616  1.0000  -2.4259   0.0000   0.3341
  17.800   0.9693   0.22477   0.22175  -0.1098  0.0610  1.0000  -2.2581   0.0000   0.3403
  17.900   0.9664   0.22735   0.22431  -0.1129  0.0595  1.0000  -2.1757   0.0000   0.3437
  18.000   0.9692   0.22892   0.22588  -0.1141  0.0583  1.0000  -2.1750   0.0000   0.3444
  18.100   0.9736   0.23014   0.22710  -0.1146  0.0574  1.0000  -2.2013   0.0000   0.3442
  18.200   0.9800   0.23107   0.22804  -0.1143  0.0567  1.0000  -2.2592   0.0000   0.3429
  18.300   0.9895   0.23187   0.22887  -0.1129  0.0562  1.0000  -2.3562   0.0000   0.3401
  18.400   0.9906   0.23416   0.23115  -0.1145  0.0560  1.0000  -2.3240   0.0000   0.3415
  18.500   0.9835   0.23726   0.23421  -0.1194  0.0549  1.0000  -2.1664   0.0000   0.3472
  18.600   0.9853   0.23913   0.23608  -0.1211  0.0539  1.0000  -2.1416   0.0000   0.3485
  18.700   0.9883   0.24069   0.23763  -0.1221  0.0530  1.0000  -2.1413   0.0000   0.3490
  18.800   0.9921   0.24208   0.23902  -0.1229  0.0523  1.0000  -2.1540   0.0000   0.3491
  18.900   0.9965   0.24333   0.24029  -0.1234  0.0518  1.0000  -2.1797   0.0000   0.3488
  19.000   1.0020   0.24451   0.24148  -0.1234  0.0514  1.0000  -2.2227   0.0000   0.3480
  19.100   1.0097   0.24577   0.24276  -0.1226  0.0511  1.0000  -2.2953   0.0000   0.3460
  19.200   1.0133   0.24775   0.24473  -0.1233  0.0508  1.0000  -2.3019   0.0000   0.3461
  19.300   1.0074   0.25035   0.24729  -0.1282  0.0502  1.0000  -2.1450   0.0000   0.3515
  19.400   1.0087   0.25231   0.24925  -0.1302  0.0492  1.0000  -2.1086   0.0000   0.3531
  19.500   1.0116   0.25391   0.25084  -0.1314  0.0484  1.0000  -2.1068   0.0000   0.3538
  19.600   1.0150   0.25537   0.25230  -0.1324  0.0477  1.0000  -2.1169   0.0000   0.3541
  19.700   1.0188   0.25671   0.25364  -0.1331  0.0471  1.0000  -2.1369   0.0000   0.3541
  19.800   1.0231   0.25796   0.25490  -0.1336  0.0467  1.0000  -2.1683   0.0000   0.3539
  19.900   1.0282   0.25921   0.25616  -0.1337  0.0463  1.0000  -2.2152   0.0000   0.3531
  20.000   1.0348   0.26064   0.25760  -0.1331  0.0461  1.0000  -2.2875   0.0000   0.3515


