xflr5 v6.32

 Calculated polar for: NACA 0012

 1 1 Reynolds number fixed          Mach number fixed         

 xtrf =   1.000 (top)        1.000 (bottom)
 Mach =   0.000     Re =     5.000 e 6     Ncrit =   9.000

  alpha     CL        CD       CDp       Cm    Top Xtr Bot Xtr   Cpmin    Chinge    XCp    
 ------- -------- --------- --------- -------- ------- ------- -------- --------- ---------
 -15.000  -1.5784   0.01739   0.01300  -0.0124  1.0000  0.0068  -11.4077   0.0000   0.2232
 -14.900  -1.5706   0.01719   0.01279  -0.0120  1.0000  0.0069  -11.2833   0.0000   0.2236
 -14.800  -1.5628   0.01700   0.01259  -0.0116  1.0000  0.0069  -11.1588   0.0000   0.2240
 -14.700  -1.5548   0.01681   0.01239  -0.0112  1.0000  0.0069  -11.0341   0.0000   0.2244
 -14.600  -1.5467   0.01662   0.01219  -0.0108  1.0000  0.0069  -10.9094   0.0000   0.2248
 -14.500  -1.5386   0.01644   0.01199  -0.0104  1.0000  0.0069  -10.7846   0.0000   0.2252
 -14.400  -1.5303   0.01626   0.01180  -0.0101  1.0000  0.0069  -10.6599   0.0000   0.2255
 -14.300  -1.5220   0.01608   0.01161  -0.0097  1.0000  0.0069  -10.5352   0.0000   0.2259
 -14.200  -1.5135   0.01590   0.01143  -0.0094  1.0000  0.0069  -10.4106   0.0000   0.2263
 -14.100  -1.5050   0.01573   0.01124  -0.0091  1.0000  0.0069  -10.2862   0.0000   0.2266
 -14.000  -1.4964   0.01556   0.01106  -0.0088  1.0000  0.0069  -10.1619   0.0000   0.2270
 -13.900  -1.4877   0.01539   0.01088  -0.0084  1.0000  0.0069  -10.0378   0.0000   0.2273
 -13.800  -1.4790   0.01522   0.01070  -0.0081  1.0000  0.0069  -9.9139   0.0000   0.2277
 -13.700  -1.4702   0.01506   0.01052  -0.0078  1.0000  0.0069  -9.7903   0.0000   0.2280
 -13.600  -1.4613   0.01489   0.01035  -0.0075  1.0000  0.0069  -9.6669   0.0000   0.2284
 -13.500  -1.4524   0.01473   0.01018  -0.0073  1.0000  0.0069  -9.5438   0.0000   0.2287
 -13.400  -1.4434   0.01458   0.01001  -0.0070  1.0000  0.0069  -9.4210   0.0000   0.2290
 -13.300  -1.4392   0.01395   0.00929  -0.0059  1.0000  0.0087  -9.3735   0.0000   0.2299
 -13.200  -1.4308   0.01373   0.00908  -0.0056  1.0000  0.0095  -9.2586   0.0000   0.2303
 -13.100  -1.4221   0.01354   0.00890  -0.0052  1.0000  0.0099  -9.1397   0.0000   0.2307
 -13.000  -1.4132   0.01336   0.00873  -0.0050  1.0000  0.0102  -9.0195   0.0000   0.2310
 -12.900  -1.4041   0.01320   0.00857  -0.0047  1.0000  0.0105  -8.8985   0.0000   0.2313
 -12.800  -1.3948   0.01305   0.00842  -0.0044  1.0000  0.0108  -8.7770   0.0000   0.2317
 -12.700  -1.3855   0.01291   0.00828  -0.0042  1.0000  0.0110  -8.6552   0.0000   0.2320
 -12.600  -1.3760   0.01278   0.00815  -0.0040  1.0000  0.0112  -8.5334   0.0000   0.2323
 -12.500  -1.3664   0.01265   0.00803  -0.0038  1.0000  0.0114  -8.4117   0.0000   0.2326
 -12.400  -1.3568   0.01253   0.00791  -0.0036  1.0000  0.0115  -8.2902   0.0000   0.2329
 -12.300  -1.3471   0.01242   0.00779  -0.0034  1.0000  0.0116  -8.1686   0.0000   0.2331
 -12.200  -1.3374   0.01231   0.00768  -0.0032  1.0000  0.0117  -8.0481   0.0000   0.2334
 -12.100  -1.3276   0.01220   0.00757  -0.0030  1.0000  0.0118  -7.9335   0.0000   0.2337
 -12.000  -1.3179   0.01210   0.00746  -0.0028  1.0000  0.0118  -7.8282   0.0000   0.2340
 -11.900  -1.3081   0.01199   0.00735  -0.0026  1.0000  0.0119  -7.7233   0.0000   0.2343
 -11.800  -1.2983   0.01189   0.00725  -0.0024  1.0000  0.0119  -7.6191   0.0000   0.2346
 -11.700  -1.2886   0.01179   0.00715  -0.0022  1.0000  0.0119  -7.5154   0.0000   0.2349
 -11.600  -1.2789   0.01169   0.00705  -0.0020  1.0000  0.0120  -7.4125   0.0000   0.2352
 -11.500  -1.2692   0.01160   0.00695  -0.0017  1.0000  0.0120  -7.3102   0.0000   0.2355
 -11.400  -1.2595   0.01150   0.00685  -0.0015  1.0000  0.0120  -7.2088   0.0000   0.2358
 -11.300  -1.2499   0.01141   0.00675  -0.0012  1.0000  0.0120  -7.1083   0.0000   0.2362
 -11.200  -1.2404   0.01131   0.00666  -0.0010  1.0000  0.0120  -7.0088   0.0000   0.2365
 -11.100  -1.2310   0.01122   0.00657  -0.0006  1.0000  0.0121  -6.9103   0.0000   0.2369
 -11.000  -1.2217   0.01113   0.00647  -0.0003  1.0000  0.0121  -6.8129   0.0000   0.2373
 -10.900  -1.2125   0.01104   0.00638   0.0000  1.0000  0.0121  -6.7164   0.0000   0.2378
 -10.800  -1.2032   0.01095   0.00629   0.0004  1.0000  0.0121  -6.6205   0.0000   0.2382
 -10.700  -1.1941   0.01087   0.00620   0.0007  1.0000  0.0121  -6.5256   0.0000   0.2386
 -10.600  -1.1851   0.01078   0.00612   0.0011  1.0000  0.0121  -6.4316   0.0000   0.2391
 -10.500  -1.1761   0.01070   0.00602   0.0016  1.0000  0.0121  -6.3379   0.0000   0.2396
 -10.400  -1.1673   0.01061   0.00594   0.0020  1.0000  0.0121  -6.2462   0.0000   0.2401
 -10.300  -1.1585   0.01053   0.00585   0.0025  1.0000  0.0121  -6.1553   0.0000   0.2407
 -10.200  -1.1498   0.01045   0.00577   0.0029  1.0000  0.0121  -6.0649   0.0000   0.2413
 -10.000  -1.1264   0.01020   0.00551   0.0026  0.9996  0.0128  -5.8689   0.0000   0.2412
  -9.900  -1.1148   0.01003   0.00533   0.0024  0.9994  0.0144  -5.7782   0.0000   0.2412
  -9.800  -1.1029   0.00988   0.00521   0.0021  0.9991  0.0155  -5.6803   0.0000   0.2412
  -9.700  -1.0910   0.00975   0.00509   0.0019  0.9988  0.0163  -5.5813   0.0000   0.2411
  -9.600  -1.0791   0.00963   0.00498   0.0016  0.9985  0.0169  -5.4819   0.0000   0.2410
  -9.500  -1.0670   0.00952   0.00488   0.0014  0.9981  0.0174  -5.3825   0.0000   0.2409
  -9.400  -1.0547   0.00942   0.00479   0.0011  0.9977  0.0179  -5.2831   0.0000   0.2408
  -9.300  -1.0425   0.00933   0.00470   0.0008  0.9974  0.0182  -5.1839   0.0000   0.2406
  -9.200  -1.0301   0.00924   0.00462   0.0005  0.9970  0.0184  -5.0853   0.0000   0.2404
  -9.100  -1.0177   0.00916   0.00454   0.0001  0.9966  0.0185  -4.9870   0.0000   0.2402
  -9.000  -1.0052   0.00909   0.00447  -0.0002  0.9962  0.0186  -4.8893   0.0000   0.2400
  -8.900  -0.9927   0.00901   0.00439  -0.0005  0.9959  0.0187  -4.7921   0.0000   0.2398
  -8.800  -0.9801   0.00894   0.00431  -0.0009  0.9955  0.0188  -4.6964   0.0000   0.2396
  -8.700  -0.9675   0.00886   0.00424  -0.0012  0.9952  0.0188  -4.6002   0.0000   0.2393
  -8.600  -0.9548   0.00879   0.00417  -0.0016  0.9948  0.0188  -4.5047   0.0000   0.2390
  -8.500  -0.9422   0.00871   0.00409  -0.0020  0.9943  0.0191  -4.4110   0.0000   0.2387
  -8.400  -0.9297   0.00861   0.00399  -0.0023  0.9938  0.0202  -4.3200   0.0000   0.2384
  -8.300  -0.9172   0.00851   0.00390  -0.0026  0.9933  0.0216  -4.2288   0.0000   0.2381
  -8.200  -0.9047   0.00840   0.00382  -0.0030  0.9927  0.0228  -4.1384   0.0000   0.2378
  -8.100  -0.8944   0.00831   0.00373  -0.0028  0.9912  0.0238  -4.0561   0.0000   0.2381
  -8.000  -0.8837   0.00822   0.00365  -0.0027  0.9895  0.0246  -3.9731   0.0000   0.2382
  -7.900  -0.8727   0.00813   0.00358  -0.0027  0.9877  0.0253  -3.8892   0.0000   0.2383
  -7.800  -0.8612   0.00806   0.00351  -0.0028  0.9859  0.0259  -3.8045   0.0000   0.2383
  -7.700  -0.8497   0.00799   0.00345  -0.0029  0.9841  0.0263  -3.7200   0.0000   0.2382
  -7.600  -0.8381   0.00793   0.00339  -0.0030  0.9823  0.0266  -3.6361   0.0000   0.2382
  -7.500  -0.8266   0.00787   0.00333  -0.0031  0.9802  0.0268  -3.5531   0.0000   0.2381
  -7.400  -0.8159   0.00781   0.00327  -0.0030  0.9783  0.0269  -3.4734   0.0000   0.2383
  -7.300  -0.8053   0.00775   0.00321  -0.0029  0.9759  0.0277  -3.3953   0.0000   0.2385
  -7.200  -0.7947   0.00768   0.00314  -0.0027  0.9730  0.0293  -3.3180   0.0000   0.2387
  -7.100  -0.7842   0.00761   0.00307  -0.0026  0.9698  0.0309  -3.2407   0.0000   0.2390
  -7.000  -0.7739   0.00753   0.00300  -0.0024  0.9663  0.0323  -3.1659   0.0000   0.2393
  -6.900  -0.7635   0.00745   0.00293  -0.0022  0.9630  0.0335  -3.0909   0.0000   0.2395
  -6.800  -0.7527   0.00738   0.00287  -0.0021  0.9605  0.0346  -3.0241   0.0000   0.2397
  -6.700  -0.7419   0.00732   0.00281  -0.0020  0.9573  0.0354  -2.9602   0.0000   0.2399
  -6.600  -0.7312   0.00727   0.00276  -0.0019  0.9533  0.0360  -2.8970   0.0000   0.2401
  -6.500  -0.7207   0.00723   0.00271  -0.0017  0.9488  0.0363  -2.8345   0.0000   0.2404
  -6.400  -0.7101   0.00718   0.00265  -0.0016  0.9442  0.0379  -2.7728   0.0000   0.2406
  -6.300  -0.6992   0.00710   0.00259  -0.0015  0.9412  0.0409  -2.7109   0.0000   0.2408
  -6.200  -0.6885   0.00701   0.00252  -0.0014  0.9372  0.0433  -2.6500   0.0000   0.2409
  -6.100  -0.6778   0.00695   0.00246  -0.0013  0.9323  0.0452  -2.5894   0.0000   0.2412
  -6.000  -0.6672   0.00691   0.00241  -0.0012  0.9264  0.0463  -2.5293   0.0000   0.2414
  -5.900  -0.6562   0.00686   0.00236  -0.0011  0.9219  0.0470  -2.4687   0.0000   0.2416
  -5.800  -0.6451   0.00682   0.00231  -0.0011  0.9178  0.0486  -2.4084   0.0000   0.2417
  -5.700  -0.6342   0.00676   0.00226  -0.0010  0.9124  0.0517  -2.3493   0.0000   0.2419
  -5.600  -0.6236   0.00670   0.00220  -0.0009  0.9058  0.0544  -2.2914   0.0000   0.2421
  -5.500  -0.6128   0.00664   0.00214  -0.0008  0.8998  0.0567  -2.2333   0.0000   0.2423
  -5.400  -0.6017   0.00660   0.00209  -0.0008  0.8953  0.0582  -2.1743   0.0000   0.2424
  -5.300  -0.5906   0.00656   0.00204  -0.0007  0.8890  0.0591  -2.1157   0.0000   0.2425
  -5.200  -0.5797   0.00653   0.00200  -0.0006  0.8811  0.0624  -2.0592   0.0000   0.2427
  -5.100  -0.5688   0.00647   0.00194  -0.0006  0.8750  0.0662  -2.0031   0.0000   0.2429
  -5.000  -0.5578   0.00640   0.00189  -0.0005  0.8699  0.0694  -1.9472   0.0000   0.2430
  -4.900  -0.5468   0.00637   0.00185  -0.0005  0.8623  0.0715  -1.8916   0.0000   0.2431
  -4.800  -0.5358   0.00635   0.00181  -0.0004  0.8528  0.0730  -1.8366   0.0000   0.2433
  -4.700  -0.5247   0.00630   0.00176  -0.0004  0.8475  0.0782  -1.7821   0.0000   0.2434
  -4.600  -0.5137   0.00623   0.00171  -0.0003  0.8409  0.0829  -1.7346   0.0000   0.2435
  -4.500  -0.5028   0.00619   0.00166  -0.0003  0.8320  0.0863  -1.6892   0.0000   0.2437
  -4.400  -0.4918   0.00615   0.00162  -0.0002  0.8236  0.0919  -1.6441   0.0000   0.2438
  -4.300  -0.4808   0.00608   0.00157  -0.0002  0.8175  0.0984  -1.5997   0.0000   0.2440
  -4.200  -0.4698   0.00605   0.00153  -0.0001  0.8086  0.1019  -1.5552   0.0000   0.2441
  -4.100  -0.4587   0.00603   0.00150  -0.0001  0.7979  0.1058  -1.5110   0.0000   0.2442
  -4.000  -0.4476   0.00596   0.00145  -0.0001  0.7927  0.1126  -1.4674   0.0000   0.2443
  -3.900  -0.4365   0.00592   0.00141  -0.0001  0.7846  0.1173  -1.4239   0.0000   0.2444
  -3.700  -0.4143   0.00586   0.00134  -0.0000  0.7663  0.1276  -1.3379   0.0000   0.2447
  -3.600  -0.4032   0.00581   0.00129   0.0000  0.7588  0.1336  -1.2949   0.0000   0.2448
  -3.400  -0.3812   0.00573   0.00122   0.0001  0.7396  0.1492  -1.2143   0.0000   0.2450
  -3.300  -0.3700   0.00568   0.00119   0.0001  0.7327  0.1555  -1.1789   0.0000   0.2451
  -3.200  -0.3589   0.00566   0.00116   0.0001  0.7223  0.1631  -1.1438   0.0000   0.2452
  -3.100  -0.3479   0.00561   0.00112   0.0001  0.7118  0.1709  -1.1093   0.0000   0.2454
  -3.000  -0.3366   0.00558   0.00109   0.0001  0.7059  0.1755  -1.0743   0.0000   0.2454
  -2.900  -0.3254   0.00557   0.00107   0.0001  0.6965  0.1820  -1.0399   0.0000   0.2454
  -2.800  -0.3145   0.00552   0.00104   0.0002  0.6842  0.1917  -1.0063   0.0000   0.2456
  -2.700  -0.3031   0.00549   0.00101   0.0002  0.6785  0.1976  -0.9722   0.0000   0.2456
  -2.600  -0.2922   0.00543   0.00098   0.0002  0.6698  0.2109  -0.9408   0.0000   0.2458
  -2.500  -0.2811   0.00542   0.00096   0.0002  0.6581  0.2178  -0.9120   0.0000   0.2459
  -2.400  -0.2697   0.00540   0.00094   0.0002  0.6511  0.2238  -0.8829   0.0000   0.2459
  -2.300  -0.2585   0.00535   0.00091   0.0002  0.6434  0.2333  -0.8546   0.0000   0.2460
  -2.200  -0.2474   0.00534   0.00089   0.0002  0.6319  0.2399  -0.8263   0.0000   0.2461
  -2.100  -0.2361   0.00532   0.00087   0.0002  0.6230  0.2486  -0.7981   0.0000   0.2461
  -2.000  -0.2250   0.00526   0.00084   0.0002  0.6166  0.2608  -0.7735   0.0000   0.2462
  -1.900  -0.2138   0.00526   0.00083   0.0002  0.6065  0.2659  -0.7490   0.0000   0.2463
  -1.800  -0.2026   0.00524   0.00081   0.0002  0.5949  0.2768  -0.7249   0.0000   0.2464
  -1.700  -0.1913   0.00520   0.00079   0.0002  0.5893  0.2850  -0.7008   0.0000   0.2464
  -1.500  -0.1690   0.00517   0.00076   0.0002  0.5680  0.3043  -0.6575   0.0000   0.2466
  -1.400  -0.1577   0.00514   0.00074   0.0002  0.5622  0.3127  -0.6365   0.0000   0.2466
  -1.300  -0.1463   0.00514   0.00074   0.0001  0.5539  0.3180  -0.6154   0.0000   0.2465
  -1.200  -0.1353   0.00513   0.00072   0.0002  0.5421  0.3299  -0.5971   0.0000   0.2467
  -1.100  -0.1240   0.00510   0.00071   0.0001  0.5345  0.3387  -0.5785   0.0000   0.2467
  -1.000  -0.1126   0.00509   0.00070   0.0001  0.5277  0.3468  -0.5600   0.0000   0.2466
  -0.900  -0.1015   0.00508   0.00069   0.0001  0.5170  0.3580  -0.5434   0.0000   0.2469
  -0.800  -0.0902   0.00507   0.00068   0.0001  0.5066  0.3651  -0.5269   0.0000   0.2468
  -0.700  -0.0788   0.00506   0.00068   0.0001  0.5009  0.3728  -0.5104   0.0000   0.2465
  -0.600  -0.0677   0.00504   0.00067   0.0001  0.4913  0.3853  -0.4955   0.0000   0.2469
  -0.500  -0.0565   0.00505   0.00067   0.0001  0.4788  0.3924  -0.4808   0.0000   0.2470
  -0.400  -0.0450   0.00504   0.00067   0.0000  0.4738  0.3995  -0.4660   0.0000   0.2464
  -0.300  -0.0339   0.00502   0.00066   0.0000  0.4650  0.4117  -0.4526   0.0000   0.2469
  -0.200  -0.0227   0.00504   0.00066   0.0000  0.4525  0.4196  -0.4394   0.0000   0.2475
  -0.100  -0.0112   0.00503   0.00066  -0.0000  0.4467  0.4262  -0.4260   0.0000   0.2454
   0.000   0.0000   0.00502   0.00067  -0.0000  0.4383  0.4383  -0.4138   0.0000   0.3853
   0.100   0.0112   0.00503   0.00066   0.0000  0.4262  0.4467  -0.4260   0.0000   0.2454
   0.200   0.0227   0.00504   0.00066  -0.0000  0.4196  0.4526  -0.4394   0.0000   0.2475
   0.300   0.0339   0.00502   0.00066  -0.0000  0.4117  0.4650  -0.4526   0.0000   0.2469
   0.400   0.0450   0.00504   0.00067  -0.0000  0.3995  0.4738  -0.4660   0.0000   0.2464
   0.500   0.0565   0.00505   0.00067  -0.0001  0.3924  0.4788  -0.4808   0.0000   0.2470
   0.600   0.0677   0.00504   0.00067  -0.0001  0.3853  0.4913  -0.4955   0.0000   0.2469
   0.700   0.0788   0.00506   0.00068  -0.0001  0.3728  0.5009  -0.5104   0.0000   0.2465
   0.800   0.0902   0.00507   0.00068  -0.0001  0.3651  0.5066  -0.5269   0.0000   0.2468
   0.900   0.1015   0.00508   0.00069  -0.0001  0.3580  0.5170  -0.5434   0.0000   0.2469
   1.000   0.1126   0.00509   0.00070  -0.0001  0.3468  0.5277  -0.5600   0.0000   0.2466
   1.100   0.1240   0.00510   0.00071  -0.0001  0.3387  0.5345  -0.5785   0.0000   0.2467
   1.200   0.1353   0.00513   0.00072  -0.0002  0.3299  0.5421  -0.5971   0.0000   0.2467
   1.300   0.1463   0.00514   0.00074  -0.0001  0.3180  0.5539  -0.6154   0.0000   0.2465
   1.400   0.1577   0.00514   0.00074  -0.0002  0.3127  0.5622  -0.6365   0.0000   0.2466
   1.500   0.1690   0.00517   0.00076  -0.0002  0.3043  0.5680  -0.6575   0.0000   0.2466
   1.600   0.1800   0.00520   0.00078  -0.0002  0.2904  0.5802  -0.6783   0.0000   0.2464
   1.700   0.1914   0.00520   0.00079  -0.0002  0.2850  0.5893  -0.7008   0.0000   0.2464
   1.800   0.2026   0.00524   0.00081  -0.0002  0.2768  0.5949  -0.7249   0.0000   0.2464
   1.900   0.2138   0.00526   0.00083  -0.0002  0.2659  0.6065  -0.7490   0.0000   0.2463
   2.000   0.2250   0.00526   0.00084  -0.0002  0.2608  0.6166  -0.7735   0.0000   0.2462
   2.100   0.2361   0.00532   0.00087  -0.0002  0.2486  0.6230  -0.7981   0.0000   0.2461
   2.200   0.2474   0.00534   0.00089  -0.0002  0.2399  0.6319  -0.8264   0.0000   0.2461
   2.300   0.2585   0.00535   0.00091  -0.0002  0.2333  0.6434  -0.8546   0.0000   0.2460
   2.400   0.2697   0.00540   0.00094  -0.0002  0.2238  0.6511  -0.8829   0.0000   0.2459
   2.500   0.2811   0.00542   0.00096  -0.0002  0.2178  0.6581  -0.9120   0.0000   0.2459
   2.600   0.2922   0.00543   0.00098  -0.0002  0.2109  0.6698  -0.9408   0.0000   0.2458
   2.700   0.3031   0.00549   0.00101  -0.0002  0.1977  0.6785  -0.9722   0.0000   0.2456
   2.900   0.3254   0.00557   0.00107  -0.0001  0.1820  0.6965  -1.0399   0.0000   0.2454
   3.000   0.3366   0.00558   0.00109  -0.0001  0.1755  0.7059  -1.0743   0.0000   0.2454
   3.100   0.3479   0.00561   0.00112  -0.0001  0.1709  0.7118  -1.1093   0.0000   0.2454
   3.200   0.3589   0.00566   0.00116  -0.0001  0.1631  0.7223  -1.1439   0.0000   0.2452
   3.300   0.3700   0.00568   0.00119  -0.0001  0.1555  0.7327  -1.1789   0.0000   0.2451
   3.400   0.3812   0.00573   0.00122  -0.0001  0.1491  0.7396  -1.2143   0.0000   0.2450
   3.500   0.3921   0.00579   0.00126  -0.0000  0.1377  0.7484  -1.2529   0.0000   0.2449
   3.600   0.4032   0.00581   0.00129  -0.0000  0.1336  0.7588  -1.2949   0.0000   0.2448
   3.700   0.4143   0.00586   0.00134   0.0000  0.1276  0.7663  -1.3379   0.0000   0.2447
   3.800   0.4254   0.00591   0.00138   0.0000  0.1197  0.7733  -1.3807   0.0000   0.2446
   3.900   0.4366   0.00592   0.00141   0.0001  0.1173  0.7846  -1.4240   0.0000   0.2445
   4.000   0.4476   0.00596   0.00145   0.0001  0.1125  0.7927  -1.4674   0.0000   0.2443
   4.200   0.4698   0.00605   0.00153   0.0001  0.1019  0.8085  -1.5553   0.0000   0.2441
   4.300   0.4809   0.00608   0.00157   0.0002  0.0984  0.8175  -1.5998   0.0000   0.2440
   4.400   0.4918   0.00615   0.00162   0.0002  0.0918  0.8236  -1.6442   0.0000   0.2439
   4.500   0.5028   0.00619   0.00166   0.0003  0.0863  0.8320  -1.6893   0.0000   0.2437
   4.600   0.5138   0.00623   0.00171   0.0003  0.0829  0.8409  -1.7347   0.0000   0.2436
   4.700   0.5247   0.00630   0.00176   0.0004  0.0782  0.8475  -1.7821   0.0000   0.2434
   4.800   0.5358   0.00635   0.00181   0.0004  0.0730  0.8528  -1.8367   0.0000   0.2433
   4.900   0.5468   0.00637   0.00185   0.0005  0.0715  0.8623  -1.8917   0.0000   0.2431
   5.000   0.5578   0.00640   0.00189   0.0005  0.0694  0.8698  -1.9473   0.0000   0.2430
   5.100   0.5689   0.00647   0.00194   0.0006  0.0662  0.8750  -2.0032   0.0000   0.2429
   5.200   0.5798   0.00653   0.00200   0.0006  0.0624  0.8811  -2.0593   0.0000   0.2427
   5.300   0.5906   0.00656   0.00204   0.0007  0.0591  0.8890  -2.1158   0.0000   0.2425
   5.400   0.6017   0.00660   0.00209   0.0008  0.0582  0.8953  -2.1744   0.0000   0.2424
   5.500   0.6128   0.00664   0.00214   0.0008  0.0567  0.8997  -2.2334   0.0000   0.2423
   5.600   0.6237   0.00670   0.00220   0.0009  0.0544  0.9059  -2.2915   0.0000   0.2421
   5.700   0.6343   0.00676   0.00226   0.0010  0.0517  0.9123  -2.3495   0.0000   0.2419
   5.800   0.6452   0.00682   0.00231   0.0011  0.0485  0.9178  -2.4085   0.0000   0.2417
   5.900   0.6563   0.00686   0.00236   0.0011  0.0470  0.9219  -2.4689   0.0000   0.2416
   6.000   0.6673   0.00691   0.00241   0.0012  0.0463  0.9264  -2.5295   0.0000   0.2415
   6.100   0.6779   0.00695   0.00246   0.0013  0.0452  0.9323  -2.5896   0.0000   0.2412
   6.200   0.6885   0.00702   0.00252   0.0014  0.0433  0.9372  -2.6502   0.0000   0.2410
   6.300   0.6992   0.00710   0.00259   0.0015  0.0409  0.9412  -2.7111   0.0000   0.2408
   6.400   0.7101   0.00718   0.00265   0.0016  0.0379  0.9441  -2.7730   0.0000   0.2406
   6.500   0.7207   0.00723   0.00271   0.0017  0.0363  0.9488  -2.8347   0.0000   0.2404
   6.600   0.7313   0.00727   0.00276   0.0019  0.0360  0.9533  -2.8972   0.0000   0.2401
   6.700   0.7420   0.00732   0.00281   0.0020  0.0354  0.9572  -2.9604   0.0000   0.2399
   6.800   0.7528   0.00738   0.00287   0.0021  0.0346  0.9605  -3.0243   0.0000   0.2397
   6.900   0.7636   0.00745   0.00293   0.0022  0.0335  0.9629  -3.0912   0.0000   0.2396
   7.000   0.7740   0.00753   0.00300   0.0023  0.0323  0.9662  -3.1661   0.0000   0.2393
   7.100   0.7843   0.00761   0.00307   0.0025  0.0309  0.9698  -3.2410   0.0000   0.2390
   7.200   0.7948   0.00768   0.00314   0.0027  0.0293  0.9730  -3.3183   0.0000   0.2387
   7.300   0.8053   0.00775   0.00321   0.0028  0.0277  0.9759  -3.3956   0.0000   0.2385
   7.400   0.8160   0.00781   0.00327   0.0030  0.0269  0.9783  -3.4737   0.0000   0.2383
   7.500   0.8267   0.00787   0.00333   0.0031  0.0268  0.9802  -3.5534   0.0000   0.2381
   7.600   0.8382   0.00793   0.00339   0.0030  0.0266  0.9823  -3.6363   0.0000   0.2382
   7.700   0.8498   0.00799   0.00345   0.0029  0.0263  0.9841  -3.7202   0.0000   0.2382
   7.800   0.8613   0.00806   0.00351   0.0028  0.0259  0.9859  -3.8048   0.0000   0.2383
   7.900   0.8727   0.00813   0.00358   0.0027  0.0253  0.9877  -3.8895   0.0000   0.2383
   8.000   0.8838   0.00822   0.00365   0.0027  0.0246  0.9895  -3.9734   0.0000   0.2383
   8.100   0.8944   0.00831   0.00373   0.0028  0.0237  0.9912  -4.0563   0.0000   0.2381
   8.200   0.9048   0.00840   0.00382   0.0030  0.0228  0.9928  -4.1386   0.0000   0.2379
   8.300   0.9173   0.00851   0.00390   0.0026  0.0215  0.9933  -4.2291   0.0000   0.2382
   8.400   0.9298   0.00861   0.00399   0.0023  0.0202  0.9939  -4.3203   0.0000   0.2385
   8.500   0.9423   0.00871   0.00409   0.0019  0.0191  0.9943  -4.4114   0.0000   0.2387
   8.600   0.9549   0.00879   0.00417   0.0016  0.0188  0.9948  -4.5051   0.0000   0.2390
   8.700   0.9676   0.00886   0.00424   0.0012  0.0188  0.9952  -4.6006   0.0000   0.2393
   8.800   0.9802   0.00894   0.00431   0.0009  0.0188  0.9955  -4.6968   0.0000   0.2396
   8.900   0.9928   0.00901   0.00439   0.0005  0.0187  0.9959  -4.7926   0.0000   0.2398
   9.000   1.0053   0.00909   0.00447   0.0002  0.0186  0.9962  -4.8897   0.0000   0.2401
   9.100   1.0178   0.00916   0.00454  -0.0002  0.0185  0.9966  -4.9875   0.0000   0.2403
   9.200   1.0302   0.00924   0.00462  -0.0005  0.0184  0.9970  -5.0858   0.0000   0.2405
   9.300   1.0426   0.00933   0.00470  -0.0008  0.0182  0.9974  -5.1844   0.0000   0.2406
   9.400   1.0549   0.00942   0.00479  -0.0011  0.0179  0.9978  -5.2835   0.0000   0.2408
   9.500   1.0671   0.00952   0.00488  -0.0014  0.0174  0.9981  -5.3829   0.0000   0.2409
   9.600   1.0792   0.00963   0.00498  -0.0017  0.0169  0.9985  -5.4824   0.0000   0.2410
   9.700   1.0912   0.00975   0.00509  -0.0019  0.0163  0.9988  -5.5818   0.0000   0.2411
   9.800   1.1031   0.00988   0.00521  -0.0022  0.0155  0.9991  -5.6809   0.0000   0.2412
   9.900   1.1149   0.01003   0.00533  -0.0024  0.0144  0.9994  -5.7788   0.0000   0.2413
  10.000   1.1266   0.01020   0.00551  -0.0026  0.0128  0.9997  -5.8694   0.0000   0.2413
  10.200   1.1496   0.01045   0.00577  -0.0029  0.0121  1.0000  -6.0640   0.0000   0.2412
  10.300   1.1583   0.01053   0.00585  -0.0024  0.0121  1.0000  -6.1546   0.0000   0.2407
  10.400   1.1671   0.01061   0.00594  -0.0020  0.0121  1.0000  -6.2455   0.0000   0.2401
  10.500   1.1760   0.01070   0.00602  -0.0015  0.0121  1.0000  -6.3373   0.0000   0.2396
  10.600   1.1849   0.01078   0.00611  -0.0011  0.0121  1.0000  -6.4311   0.0000   0.2391
  10.700   1.1940   0.01087   0.00620  -0.0007  0.0121  1.0000  -6.5251   0.0000   0.2386
  10.800   1.2032   0.01095   0.00629  -0.0004  0.0121  1.0000  -6.6201   0.0000   0.2382
  10.900   1.2124   0.01104   0.00638  -0.0000  0.0121  1.0000  -6.7161   0.0000   0.2378
  11.000   1.2217   0.01113   0.00647   0.0003  0.0121  1.0000  -6.8127   0.0000   0.2373
  11.100   1.2310   0.01122   0.00656   0.0007  0.0121  1.0000  -6.9102   0.0000   0.2369
  11.200   1.2404   0.01131   0.00666   0.0010  0.0120  1.0000  -7.0088   0.0000   0.2365
  11.300   1.2499   0.01141   0.00675   0.0012  0.0120  1.0000  -7.1084   0.0000   0.2362
  11.400   1.2595   0.01150   0.00685   0.0015  0.0120  1.0000  -7.2091   0.0000   0.2358
  11.500   1.2692   0.01160   0.00695   0.0017  0.0120  1.0000  -7.3106   0.0000   0.2355
  11.600   1.2789   0.01169   0.00705   0.0019  0.0120  1.0000  -7.4129   0.0000   0.2352
  11.700   1.2887   0.01179   0.00715   0.0022  0.0119  1.0000  -7.5160   0.0000   0.2349
  11.800   1.2985   0.01189   0.00725   0.0024  0.0119  1.0000  -7.6197   0.0000   0.2346
  11.900   1.3082   0.01199   0.00735   0.0026  0.0119  1.0000  -7.7240   0.0000   0.2343
  12.000   1.3180   0.01210   0.00746   0.0028  0.0118  1.0000  -7.8289   0.0000   0.2340
  12.100   1.3278   0.01220   0.00757   0.0029  0.0118  1.0000  -7.9343   0.0000   0.2337
  12.200   1.3376   0.01231   0.00768   0.0031  0.0117  1.0000  -8.0491   0.0000   0.2335
  12.300   1.3473   0.01242   0.00779   0.0033  0.0116  1.0000  -8.1697   0.0000   0.2332
  12.400   1.3570   0.01253   0.00791   0.0035  0.0115  1.0000  -8.2914   0.0000   0.2329
  12.500   1.3666   0.01265   0.00803   0.0037  0.0114  1.0000  -8.4129   0.0000   0.2326
  12.600   1.3762   0.01278   0.00815   0.0039  0.0112  1.0000  -8.5347   0.0000   0.2323
  12.700   1.3857   0.01291   0.00828   0.0042  0.0110  1.0000  -8.6566   0.0000   0.2320
  12.800   1.3951   0.01305   0.00842   0.0044  0.0108  1.0000  -8.7784   0.0000   0.2317
  12.900   1.4043   0.01320   0.00857   0.0046  0.0105  1.0000  -8.9000   0.0000   0.2314
  13.000   1.4134   0.01336   0.00873   0.0049  0.0102  1.0000  -9.0211   0.0000   0.2311
  13.100   1.4224   0.01354   0.00890   0.0052  0.0099  1.0000  -9.1414   0.0000   0.2307
  13.200   1.4311   0.01373   0.00908   0.0055  0.0095  1.0000  -9.2603   0.0000   0.2303
  13.300   1.4395   0.01395   0.00929   0.0059  0.0087  1.0000  -9.3751   0.0000   0.2299
  14.100   1.5054   0.01573   0.01124   0.0090  0.0069  1.0000  -10.2890   0.0000   0.2267
  14.200   1.5140   0.01590   0.01143   0.0093  0.0069  1.0000  -10.4136   0.0000   0.2263
  14.300   1.5225   0.01608   0.01161   0.0096  0.0069  1.0000  -10.5383   0.0000   0.2260
  14.400   1.5308   0.01626   0.01180   0.0100  0.0069  1.0000  -10.6631   0.0000   0.2256
  14.500   1.5391   0.01644   0.01199   0.0103  0.0069  1.0000  -10.7880   0.0000   0.2252
  14.600   1.5473   0.01662   0.01219   0.0107  0.0069  1.0000  -10.9130   0.0000   0.2249
  14.700   1.5554   0.01681   0.01239   0.0111  0.0069  1.0000  -11.0379   0.0000   0.2245
  14.800   1.5634   0.01700   0.01259   0.0115  0.0069  1.0000  -11.1627   0.0000   0.2241
  14.900   1.5713   0.01719   0.01279   0.0119  0.0069  1.0000  -11.2875   0.0000   0.2237
  15.000   1.5790   0.01739   0.01300   0.0123  0.0068  1.0000  -11.4121   0.0000   0.2233
  15.100   1.5867   0.01758   0.01321   0.0127  0.0068  1.0000  -11.5364   0.0000   0.2228
  15.200   1.5942   0.01779   0.01343   0.0131  0.0068  1.0000  -11.6605   0.0000   0.2224
  15.300   1.6016   0.01799   0.01364   0.0136  0.0068  1.0000  -11.7843   0.0000   0.2220
  15.400   1.6088   0.01820   0.01386   0.0141  0.0068  1.0000  -11.9073   0.0000   0.2215
  15.500   1.6158   0.01841   0.01409   0.0146  0.0068  1.0000  -12.0290   0.0000   0.2211
  15.600   1.6223   0.01862   0.01431   0.0152  0.0068  1.0000  -12.1484   0.0000   0.2205
  15.700   1.6281   0.01883   0.01454   0.0159  0.0068  1.0000  -12.2635   0.0000   0.2199
  15.800   1.6335   0.01905   0.01477   0.0167  0.0068  1.0000  -12.3757   0.0000   0.2193
  15.900   1.6387   0.01928   0.01501   0.0175  0.0068  1.0000  -12.4872   0.0000   0.2187
  16.000   1.6439   0.01951   0.01526   0.0183  0.0068  1.0000  -12.5990   0.0000   0.2180
  16.100   1.6490   0.01976   0.01552   0.0190  0.0068  1.0000  -12.7104   0.0000   0.2174
  16.200   1.6541   0.02001   0.01579   0.0198  0.0068  1.0000  -12.8217   0.0000   0.2168
  16.300   1.6589   0.02027   0.01608   0.0205  0.0068  1.0000  -12.9321   0.0000   0.2162
  16.400   1.6638   0.02055   0.01637   0.0213  0.0068  1.0000  -13.0425   0.0000   0.2156
  16.500   1.6687   0.02083   0.01666   0.0219  0.0068  1.0000  -13.1542   0.0000   0.2150
  16.600   1.6734   0.02113   0.01698   0.0226  0.0068  1.0000  -13.2639   0.0000   0.2144
  16.700   1.6779   0.02143   0.01730   0.0233  0.0068  1.0000  -13.3721   0.0000   0.2139
  16.800   1.6824   0.02175   0.01763   0.0240  0.0068  1.0000  -13.4817   0.0000   0.2133
  16.900   1.6868   0.02208   0.01798   0.0246  0.0068  1.0000  -13.5895   0.0000   0.2128
  17.000   1.6911   0.02243   0.01835   0.0252  0.0068  1.0000  -13.6972   0.0000   0.2122
  17.100   1.6955   0.02279   0.01872   0.0258  0.0068  1.0000  -13.8064   0.0000   0.2117
  17.200   1.6995   0.02317   0.01912   0.0264  0.0068  1.0000  -13.9121   0.0000   0.2112
  17.300   1.7032   0.02356   0.01953   0.0270  0.0068  1.0000  -14.0162   0.0000   0.2107
  17.400   1.7072   0.02396   0.01995   0.0275  0.0068  1.0000  -14.1221   0.0000   0.2102
  17.500   1.7106   0.02440   0.02041   0.0281  0.0068  1.0000  -14.2242   0.0000   0.2097
  17.600   1.7142   0.02485   0.02088   0.0285  0.0068  1.0000  -14.3275   0.0000   0.2092
  17.700   1.7180   0.02531   0.02135   0.0290  0.0068  1.0000  -14.4320   0.0000   0.2088
  17.800   1.7211   0.02582   0.02188   0.0294  0.0068  1.0000  -14.5315   0.0000   0.2083
  17.900   1.7244   0.02633   0.02241   0.0298  0.0068  1.0000  -14.6331   0.0000   0.2079
  18.000   1.7277   0.02685   0.02296   0.0302  0.0068  1.0000  -14.7337   0.0000   0.2075
  18.100   1.7301   0.02744   0.02356   0.0306  0.0068  1.0000  -14.8277   0.0000   0.2071
  18.200   1.7329   0.02801   0.02415   0.0309  0.0068  1.0000  -14.9251   0.0000   0.2067
  18.300   1.7353   0.02864   0.02480   0.0312  0.0068  1.0000  -15.0181   0.0000   0.2063
  18.400   1.7375   0.02930   0.02549   0.0315  0.0068  1.0000  -15.1101   0.0000   0.2059
  18.500   1.7401   0.02995   0.02616   0.0317  0.0068  1.0000  -15.2054   0.0000   0.2056
  18.600   1.7417   0.03071   0.02694   0.0319  0.0068  1.0000  -15.2918   0.0000   0.2053
  18.700   1.7438   0.03144   0.02769   0.0320  0.0068  1.0000  -15.3826   0.0000   0.2050
  18.800   1.7456   0.03222   0.02851   0.0321  0.0068  1.0000  -15.4699   0.0000   0.2047
  18.900   1.7468   0.03308   0.02939   0.0322  0.0067  1.0000  -15.5522   0.0000   0.2044
  19.000   1.7486   0.03389   0.03022   0.0322  0.0067  1.0000  -15.6395   0.0000   0.2042
  19.100   1.7490   0.03487   0.03123   0.0321  0.0067  1.0000  -15.7136   0.0000   0.2039
  19.200   1.7499   0.03578   0.03217   0.0321  0.0067  1.0000  -15.7928   0.0000   0.2037
  19.300   1.7497   0.03683   0.03324   0.0320  0.0067  1.0000  -15.8615   0.0000   0.2035
  19.400   1.7497   0.03789   0.03433   0.0319  0.0067  1.0000  -15.9310   0.0000   0.2033
  19.500   1.7496   0.03897   0.03544   0.0317  0.0067  1.0000  -15.9999   0.0000   0.2032
  19.600   1.7485   0.04022   0.03671   0.0314  0.0067  1.0000  -16.0583   0.0000   0.2031
  19.700   1.7483   0.04136   0.03788   0.0312  0.0067  1.0000  -16.1251   0.0000   0.2029
  19.800   1.7461   0.04279   0.03935   0.0307  0.0067  1.0000  -16.1714   0.0000   0.2029
  19.900   1.7453   0.04403   0.04062   0.0304  0.0067  1.0000  -16.2320   0.0000   0.2028
  20.000   1.7421   0.04564   0.04226   0.0298  0.0067  1.0000  -16.2668   0.0000   0.2028


