xflr5 v6.32

 Calculated polar for: NACA 0012

 1 1 Reynolds number fixed          Mach number fixed         

 xtrf =   1.000 (top)        1.000 (bottom)
 Mach =   0.000     Re =    50.000 e 6     Ncrit =   9.000

  alpha     CL        CD       CDp       Cm    Top Xtr Bot Xtr   Cpmin    Chinge    XCp    
 ------- -------- --------- --------- -------- ------- ------- -------- --------- ---------
 -15.000  -1.6662   0.01052   0.00689   0.0000  0.9987  0.0065  -12.1916   0.0000   0.2309
 -14.900  -1.6556   0.01041   0.00679   0.0000  0.9971  0.0065  -12.0420   0.0000   0.2311
 -14.800  -1.6448   0.01031   0.00669  -0.0000  0.9956  0.0065  -11.8916   0.0000   0.2312
 -14.700  -1.6339   0.01021   0.00659  -0.0001  0.9938  0.0066  -11.7411   0.0000   0.2314
 -14.600  -1.6235   0.01012   0.00650  -0.0000  0.9925  0.0066  -11.5946   0.0000   0.2316
 -14.500  -1.6134   0.01003   0.00641   0.0001  0.9915  0.0066  -11.4515   0.0000   0.2318
 -14.400  -1.6035   0.00994   0.00633   0.0003  0.9896  0.0066  -11.3101   0.0000   0.2321
 -14.300  -1.5941   0.00987   0.00624   0.0005  0.9848  0.0066  -11.1725   0.0000   0.2325
 -14.200  -1.5844   0.00979   0.00616   0.0008  0.9797  0.0067  -11.0342   0.0000   0.2328
 -14.100  -1.5743   0.00971   0.00608   0.0009  0.9778  0.0067  -10.8937   0.0000   0.2331
 -14.000  -1.5645   0.00963   0.00600   0.0011  0.9732  0.0067  -10.7558   0.0000   0.2334
 -13.900  -1.5548   0.00956   0.00592   0.0013  0.9659  0.0067  -10.6195   0.0000   0.2337
 -13.800  -1.5446   0.00948   0.00583   0.0015  0.9625  0.0067  -10.4811   0.0000   0.2340
 -13.700  -1.5344   0.00941   0.00575   0.0016  0.9587  0.0067  -10.3434   0.0000   0.2343
 -13.600  -1.5244   0.00935   0.00568   0.0018  0.9523  0.0067  -10.2072   0.0000   0.2346
 -13.500  -1.5141   0.00928   0.00560   0.0019  0.9448  0.0067  -10.0707   0.0000   0.2348
 -13.400  -1.5038   0.00920   0.00552   0.0020  0.9422  0.0067  -9.9342   0.0000   0.2351
 -13.300  -1.4935   0.00914   0.00545   0.0021  0.9371  0.0067  -9.7988   0.0000   0.2353
 -13.200  -1.4832   0.00908   0.00537   0.0022  0.9274  0.0067  -9.6645   0.0000   0.2356
 -13.100  -1.4728   0.00901   0.00529   0.0023  0.9226  0.0067  -9.5297   0.0000   0.2358
 -13.000  -1.4623   0.00894   0.00522   0.0024  0.9192  0.0067  -9.3957   0.0000   0.2361
 -12.900  -1.4519   0.00888   0.00515   0.0025  0.9121  0.0068  -9.2630   0.0000   0.2363
 -12.800  -1.4414   0.00882   0.00508   0.0026  0.9026  0.0068  -9.1305   0.0000   0.2366
 -12.700  -1.4308   0.00876   0.00501   0.0026  0.8989  0.0068  -8.9984   0.0000   0.2368
 -12.600  -1.4203   0.00869   0.00494   0.0027  0.8953  0.0068  -8.8671   0.0000   0.2370
 -12.500  -1.4098   0.00864   0.00487   0.0028  0.8857  0.0068  -8.7370   0.0000   0.2372
 -12.400  -1.3991   0.00858   0.00480   0.0028  0.8771  0.0068  -8.6071   0.0000   0.2375
 -12.300  -1.3885   0.00852   0.00473   0.0029  0.8738  0.0068  -8.4777   0.0000   0.2377
 -12.200  -1.3778   0.00846   0.00467   0.0029  0.8694  0.0068  -8.3493   0.0000   0.2379
 -12.100  -1.3672   0.00841   0.00460   0.0030  0.8594  0.0068  -8.2217   0.0000   0.2381
 -12.000  -1.3565   0.00835   0.00454   0.0030  0.8514  0.0068  -8.0946   0.0000   0.2383
 -11.900  -1.3458   0.00829   0.00447   0.0031  0.8480  0.0068  -7.9823   0.0000   0.2385
 -11.800  -1.3350   0.00824   0.00440   0.0031  0.8435  0.0068  -7.8715   0.0000   0.2387
 -11.700  -1.3243   0.00819   0.00434   0.0032  0.8332  0.0068  -7.7616   0.0000   0.2389
 -11.600  -1.3136   0.00813   0.00428   0.0032  0.8250  0.0068  -7.6518   0.0000   0.2391
 -11.500  -1.3028   0.00808   0.00421   0.0032  0.8217  0.0068  -7.5426   0.0000   0.2393
 -11.400  -1.2919   0.00802   0.00415   0.0033  0.8180  0.0068  -7.4341   0.0000   0.2395
 -11.300  -1.2812   0.00798   0.00410   0.0033  0.8081  0.0068  -7.3265   0.0000   0.2397
 -11.200  -1.2703   0.00793   0.00404   0.0034  0.7989  0.0069  -7.2191   0.0000   0.2399
 -11.100  -1.2595   0.00787   0.00397   0.0034  0.7955  0.0069  -7.1122   0.0000   0.2401
 -11.000  -1.2486   0.00782   0.00392   0.0034  0.7921  0.0069  -7.0060   0.0000   0.2403
 -10.900  -1.2378   0.00778   0.00386   0.0034  0.7823  0.0069  -6.9007   0.0000   0.2405
 -10.800  -1.2269   0.00773   0.00381   0.0035  0.7727  0.0069  -6.7958   0.0000   0.2407
 -10.700  -1.2159   0.00767   0.00374   0.0035  0.7687  0.0070  -6.6914   0.0000   0.2409
 -10.500  -1.1941   0.00758   0.00364   0.0035  0.7584  0.0073  -6.4850   0.0000   0.2412
 -10.400  -1.1832   0.00754   0.00358   0.0035  0.7481  0.0076  -6.3826   0.0000   0.2414
 -10.300  -1.1722   0.00748   0.00352   0.0035  0.7412  0.0079  -6.2808   0.0000   0.2416
 -10.200  -1.1612   0.00743   0.00346   0.0036  0.7382  0.0081  -6.1797   0.0000   0.2418
 -10.100  -1.1502   0.00738   0.00341   0.0036  0.7345  0.0084  -6.0794   0.0000   0.2420
 -10.000  -1.1393   0.00734   0.00336   0.0036  0.7251  0.0086  -5.9800   0.0000   0.2421
  -9.900  -1.1283   0.00729   0.00330   0.0036  0.7153  0.0089  -5.8810   0.0000   0.2423
  -9.800  -1.1173   0.00723   0.00324   0.0036  0.7114  0.0092  -5.7827   0.0000   0.2425
  -9.600  -1.0954   0.00712   0.00312   0.0037  0.7015  0.0098  -5.5886   0.0000   0.2428
  -9.500  -1.0845   0.00707   0.00306   0.0037  0.6922  0.0101  -5.4929   0.0000   0.2430
  -9.400  -1.0736   0.00701   0.00300   0.0037  0.6841  0.0105  -5.3976   0.0000   0.2432
  -9.300  -1.0626   0.00694   0.00293   0.0037  0.6816  0.0108  -5.3029   0.0000   0.2434
  -9.200  -1.0516   0.00688   0.00287   0.0038  0.6791  0.0112  -5.2089   0.0000   0.2436
  -9.100  -1.0407   0.00683   0.00281   0.0038  0.6701  0.0115  -5.1156   0.0000   0.2438
  -9.000  -1.0297   0.00678   0.00276   0.0038  0.6604  0.0117  -5.0224   0.0000   0.2439
  -8.900  -1.0185   0.00674   0.00270   0.0038  0.6540  0.0118  -4.9293   0.0000   0.2441
  -8.800  -1.0073   0.00670   0.00266   0.0038  0.6516  0.0119  -4.8367   0.0000   0.2442
  -8.700  -0.9961   0.00666   0.00262   0.0038  0.6482  0.0119  -4.7453   0.0000   0.2444
  -8.600  -0.9850   0.00663   0.00258   0.0037  0.6391  0.0119  -4.6543   0.0000   0.2445
  -8.500  -0.9738   0.00660   0.00254   0.0037  0.6291  0.0120  -4.5638   0.0000   0.2447
  -8.400  -0.9625   0.00656   0.00249   0.0037  0.6243  0.0120  -4.4737   0.0000   0.2448
  -8.300  -0.9512   0.00652   0.00245   0.0037  0.6218  0.0120  -4.3844   0.0000   0.2449
  -8.200  -0.9400   0.00649   0.00241   0.0037  0.6181  0.0120  -4.2958   0.0000   0.2451
  -8.100  -0.9288   0.00647   0.00238   0.0036  0.6093  0.0121  -4.2081   0.0000   0.2452
  -8.000  -0.9175   0.00644   0.00234   0.0036  0.5994  0.0121  -4.1210   0.0000   0.2453
  -7.900  -0.9062   0.00640   0.00230   0.0036  0.5948  0.0121  -4.0343   0.0000   0.2455
  -7.800  -0.8949   0.00637   0.00226   0.0036  0.5923  0.0121  -3.9483   0.0000   0.2456
  -7.700  -0.8836   0.00634   0.00223   0.0035  0.5880  0.0121  -3.8632   0.0000   0.2457
  -7.600  -0.8723   0.00632   0.00219   0.0035  0.5796  0.0125  -3.7790   0.0000   0.2458
  -7.500  -0.8610   0.00629   0.00216   0.0035  0.5707  0.0133  -3.6954   0.0000   0.2460
  -7.400  -0.8497   0.00624   0.00211   0.0035  0.5656  0.0142  -3.6125   0.0000   0.2461
  -7.300  -0.8384   0.00620   0.00207   0.0034  0.5631  0.0152  -3.5305   0.0000   0.2462
  -7.200  -0.8272   0.00616   0.00203   0.0034  0.5591  0.0160  -3.4496   0.0000   0.2464
  -7.100  -0.8161   0.00612   0.00198   0.0034  0.5503  0.0167  -3.3695   0.0000   0.2465
  -7.000  -0.8048   0.00608   0.00194   0.0034  0.5412  0.0172  -3.2893   0.0000   0.2466
  -6.900  -0.7935   0.00603   0.00189   0.0034  0.5364  0.0178  -3.2103   0.0000   0.2468
  -6.800  -0.7822   0.00599   0.00185   0.0034  0.5347  0.0183  -3.1317   0.0000   0.2469
  -6.700  -0.7709   0.00596   0.00182   0.0033  0.5316  0.0185  -3.0550   0.0000   0.2470
  -6.600  -0.7595   0.00594   0.00179   0.0033  0.5230  0.0186  -2.9889   0.0000   0.2471
  -6.500  -0.7481   0.00592   0.00176   0.0033  0.5137  0.0187  -2.9232   0.0000   0.2472
  -6.400  -0.7367   0.00590   0.00173   0.0032  0.5074  0.0187  -2.8579   0.0000   0.2473
  -6.300  -0.7252   0.00587   0.00170   0.0032  0.5057  0.0188  -2.7931   0.0000   0.2474
  -6.200  -0.7138   0.00584   0.00167   0.0031  0.5035  0.0188  -2.7287   0.0000   0.2475
  -6.100  -0.7024   0.00583   0.00165   0.0031  0.4960  0.0190  -2.6652   0.0000   0.2476
  -6.000  -0.6910   0.00581   0.00162   0.0031  0.4872  0.0198  -2.6022   0.0000   0.2477
  -5.900  -0.6795   0.00579   0.00160   0.0030  0.4791  0.0207  -2.5396   0.0000   0.2478
  -5.800  -0.6681   0.00576   0.00156   0.0030  0.4773  0.0216  -2.4775   0.0000   0.2479
  -5.700  -0.6566   0.00573   0.00153   0.0029  0.4749  0.0225  -2.4161   0.0000   0.2480
  -5.600  -0.6453   0.00571   0.00150   0.0029  0.4677  0.0234  -2.3555   0.0000   0.2481
  -5.500  -0.6339   0.00568   0.00147   0.0029  0.4602  0.0244  -2.2955   0.0000   0.2482
  -5.400  -0.6226   0.00564   0.00144   0.0028  0.4520  0.0255  -2.2360   0.0000   0.2483
  -5.300  -0.6111   0.00560   0.00140   0.0028  0.4495  0.0263  -2.1765   0.0000   0.2484
  -5.100  -0.5882   0.00557   0.00135   0.0027  0.4403  0.0269  -2.0589   0.0000   0.2486
  -5.000  -0.5768   0.00555   0.00133   0.0027  0.4320  0.0285  -2.0011   0.0000   0.2486
  -4.900  -0.5653   0.00553   0.00131   0.0026  0.4244  0.0301  -1.9438   0.0000   0.2487
  -4.800  -0.5537   0.00550   0.00128   0.0026  0.4217  0.0314  -1.8869   0.0000   0.2488
  -4.700  -0.5423   0.00547   0.00125   0.0025  0.4197  0.0328  -1.8308   0.0000   0.2489
  -4.600  -0.5309   0.00545   0.00122   0.0025  0.4142  0.0342  -1.7755   0.0000   0.2490
  -4.500  -0.5195   0.00543   0.00120   0.0025  0.4056  0.0354  -1.7258   0.0000   0.2491
  -4.400  -0.5080   0.00541   0.00118   0.0024  0.3968  0.0360  -1.6792   0.0000   0.2491
  -4.300  -0.4964   0.00539   0.00115   0.0023  0.3941  0.0362  -1.6328   0.0000   0.2492
  -4.200  -0.4848   0.00537   0.00113   0.0023  0.3923  0.0364  -1.5868   0.0000   0.2492
  -4.100  -0.4733   0.00536   0.00112   0.0022  0.3879  0.0376  -1.5413   0.0000   0.2493
  -4.000  -0.4618   0.00536   0.00110   0.0022  0.3796  0.0395  -1.4964   0.0000   0.2493
  -3.900  -0.4503   0.00534   0.00109   0.0021  0.3704  0.0414  -1.4518   0.0000   0.2494
  -3.800  -0.4388   0.00531   0.00106   0.0021  0.3671  0.0433  -1.4077   0.0000   0.2495
  -3.600  -0.4158   0.00526   0.00101   0.0020  0.3606  0.0465  -1.3206   0.0000   0.2496
  -3.500  -0.4043   0.00526   0.00100   0.0019  0.3530  0.0470  -1.2773   0.0000   0.2497
  -3.400  -0.3927   0.00525   0.00099   0.0019  0.3442  0.0491  -1.2345   0.0000   0.2497
  -3.300  -0.3812   0.00522   0.00096   0.0018  0.3406  0.0541  -1.1964   0.0000   0.2498
  -3.200  -0.3698   0.00517   0.00093   0.0018  0.3388  0.0580  -1.1609   0.0000   0.2499
  -3.100  -0.3583   0.00517   0.00091   0.0017  0.3331  0.0588  -1.1252   0.0000   0.2499
  -3.000  -0.3468   0.00517   0.00091   0.0017  0.3257  0.0592  -1.0898   0.0000   0.2500
  -2.900  -0.3351   0.00516   0.00090   0.0016  0.3174  0.0612  -1.0545   0.0000   0.2500
  -2.800  -0.3235   0.00515   0.00088   0.0016  0.3147  0.0641  -1.0195   0.0000   0.2500
  -2.700  -0.3119   0.00513   0.00086   0.0015  0.3129  0.0670  -0.9850   0.0000   0.2500
  -2.600  -0.3005   0.00512   0.00085   0.0015  0.3056  0.0697  -0.9510   0.0000   0.2501
  -2.500  -0.2890   0.00511   0.00084   0.0014  0.2982  0.0716  -0.9212   0.0000   0.2502
  -2.400  -0.2774   0.00510   0.00083   0.0013  0.2907  0.0722  -0.8918   0.0000   0.2502
  -2.300  -0.2657   0.00509   0.00082   0.0013  0.2891  0.0728  -0.8625   0.0000   0.2501
  -2.200  -0.2541   0.00508   0.00081   0.0012  0.2860  0.0761  -0.8336   0.0000   0.2501
  -2.100  -0.2426   0.00509   0.00080   0.0012  0.2780  0.0797  -0.8051   0.0000   0.2502
  -2.000  -0.2312   0.00505   0.00078   0.0011  0.2701  0.0858  -0.7788   0.0000   0.2503
  -1.900  -0.2196   0.00504   0.00077   0.0011  0.2656  0.0879  -0.7539   0.0000   0.2503
  -1.800  -0.2080   0.00502   0.00075   0.0010  0.2639  0.0951  -0.7293   0.0000   0.2503
  -1.700  -0.1966   0.00501   0.00074   0.0010  0.2583  0.0985  -0.7051   0.0000   0.2504
  -1.600  -0.1851   0.00501   0.00073   0.0009  0.2502  0.1014  -0.6815   0.0000   0.2505
  -1.500  -0.1734   0.00501   0.00073   0.0009  0.2426  0.1022  -0.6600   0.0000   0.2505
  -1.400  -0.1617   0.00500   0.00072   0.0008  0.2413  0.1028  -0.6385   0.0000   0.2504
  -1.300  -0.1501   0.00499   0.00071   0.0007  0.2389  0.1092  -0.6173   0.0000   0.2503
  -1.200  -0.1388   0.00498   0.00070   0.0007  0.2308  0.1173  -0.5983   0.0000   0.2506
  -1.100  -0.1273   0.00497   0.00070   0.0006  0.2217  0.1194  -0.5796   0.0000   0.2506
  -1.000  -0.1156   0.00497   0.00069   0.0006  0.2188  0.1242  -0.5608   0.0000   0.2505
  -0.800  -0.0925   0.00496   0.00068   0.0004  0.2121  0.1324  -0.5267   0.0000   0.2505
  -0.700  -0.0810   0.00495   0.00068   0.0004  0.2041  0.1365  -0.5103   0.0000   0.2507
  -0.600  -0.0694   0.00495   0.00068   0.0003  0.1973  0.1392  -0.4946   0.0000   0.2506
  -0.300  -0.0348   0.00494   0.00067   0.0002  0.1844  0.1560  -0.4512   0.0000   0.2510
  -0.200  -0.0231   0.00494   0.00067   0.0001  0.1774  0.1565  -0.4376   0.0000   0.2505
  -0.100  -0.0114   0.00494   0.00067   0.0000  0.1754  0.1613  -0.4241   0.0000   0.2490
   0.000   0.0000   0.00495   0.00067   0.0000  0.1695  0.1695  -0.4117   0.0000  -0.1123
   0.100   0.0114   0.00494   0.00067  -0.0000  0.1613  0.1754  -0.4241   0.0000   0.2490
   0.200   0.0231   0.00494   0.00067  -0.0001  0.1565  0.1774  -0.4376   0.0000   0.2505
   0.300   0.0348   0.00494   0.00067  -0.0002  0.1560  0.1844  -0.4512   0.0000   0.2510
   0.500   0.0578   0.00493   0.00067  -0.0003  0.1485  0.1957  -0.4798   0.0000   0.2505
   0.600   0.0694   0.00495   0.00068  -0.0003  0.1392  0.1973  -0.4946   0.0000   0.2506
   0.700   0.0810   0.00495   0.00068  -0.0004  0.1364  0.2041  -0.5103   0.0000   0.2507
   0.800   0.0925   0.00496   0.00068  -0.0004  0.1324  0.2121  -0.5267   0.0000   0.2505
   1.000   0.1156   0.00497   0.00069  -0.0006  0.1242  0.2188  -0.5608   0.0000   0.2505
   1.100   0.1273   0.00497   0.00070  -0.0006  0.1194  0.2217  -0.5796   0.0000   0.2506
   1.200   0.1388   0.00498   0.00070  -0.0007  0.1173  0.2308  -0.5983   0.0000   0.2506
   1.300   0.1501   0.00499   0.00071  -0.0007  0.1092  0.2389  -0.6173   0.0000   0.2503
   1.400   0.1617   0.00500   0.00072  -0.0008  0.1028  0.2413  -0.6385   0.0000   0.2504
   1.500   0.1734   0.00501   0.00073  -0.0009  0.1022  0.2426  -0.6600   0.0000   0.2505
   1.700   0.1966   0.00501   0.00074  -0.0010  0.0985  0.2583  -0.7051   0.0000   0.2504
   1.800   0.2080   0.00502   0.00075  -0.0010  0.0951  0.2639  -0.7293   0.0000   0.2504
   1.900   0.2196   0.00504   0.00077  -0.0011  0.0879  0.2656  -0.7539   0.0000   0.2503
   2.100   0.2426   0.00509   0.00080  -0.0012  0.0797  0.2780  -0.8051   0.0000   0.2502
   2.200   0.2541   0.00508   0.00081  -0.0012  0.0761  0.2860  -0.8336   0.0000   0.2501
   2.300   0.2657   0.00509   0.00082  -0.0013  0.0728  0.2891  -0.8625   0.0000   0.2501
   2.400   0.2774   0.00510   0.00083  -0.0013  0.0722  0.2907  -0.8918   0.0000   0.2502
   2.500   0.2890   0.00511   0.00084  -0.0014  0.0716  0.2982  -0.9212   0.0000   0.2502
   2.600   0.3005   0.00512   0.00085  -0.0015  0.0697  0.3056  -0.9511   0.0000   0.2501
   2.800   0.3235   0.00515   0.00088  -0.0016  0.0641  0.3147  -1.0195   0.0000   0.2500
   2.900   0.3352   0.00516   0.00090  -0.0016  0.0612  0.3174  -1.0545   0.0000   0.2500
   3.000   0.3468   0.00517   0.00091  -0.0017  0.0592  0.3257  -1.0898   0.0000   0.2500
   3.100   0.3583   0.00517   0.00091  -0.0017  0.0588  0.3331  -1.1252   0.0000   0.2499
   3.300   0.3812   0.00522   0.00096  -0.0018  0.0541  0.3406  -1.1964   0.0000   0.2498
   3.400   0.3928   0.00525   0.00099  -0.0019  0.0491  0.3442  -1.2345   0.0000   0.2497
   3.500   0.4043   0.00526   0.00100  -0.0019  0.0470  0.3530  -1.2773   0.0000   0.2497
   3.600   0.4158   0.00526   0.00101  -0.0020  0.0465  0.3606  -1.3207   0.0000   0.2496
   3.800   0.4388   0.00531   0.00106  -0.0021  0.0433  0.3671  -1.4077   0.0000   0.2495
   3.900   0.4503   0.00534   0.00109  -0.0021  0.0414  0.3704  -1.4519   0.0000   0.2494
   4.000   0.4618   0.00536   0.00110  -0.0022  0.0395  0.3796  -1.4965   0.0000   0.2493
   4.100   0.4733   0.00536   0.00112  -0.0022  0.0376  0.3879  -1.5414   0.0000   0.2493
   4.200   0.4849   0.00537   0.00113  -0.0023  0.0364  0.3923  -1.5868   0.0000   0.2492
   4.300   0.4964   0.00539   0.00115  -0.0023  0.0362  0.3941  -1.6329   0.0000   0.2492
   4.400   0.5080   0.00541   0.00118  -0.0024  0.0360  0.3968  -1.6793   0.0000   0.2491
   4.500   0.5195   0.00543   0.00120  -0.0025  0.0354  0.4056  -1.7258   0.0000   0.2491
   4.600   0.5309   0.00545   0.00122  -0.0025  0.0342  0.4142  -1.7756   0.0000   0.2490
   4.800   0.5538   0.00550   0.00128  -0.0026  0.0314  0.4217  -1.8870   0.0000   0.2488
   4.900   0.5653   0.00553   0.00131  -0.0026  0.0301  0.4244  -1.9438   0.0000   0.2487
   5.000   0.5768   0.00555   0.00133  -0.0027  0.0285  0.4320  -2.0012   0.0000   0.2486
   5.100   0.5883   0.00557   0.00135  -0.0027  0.0269  0.4403  -2.0590   0.0000   0.2486
   5.300   0.6112   0.00560   0.00140  -0.0028  0.0263  0.4495  -2.1765   0.0000   0.2484
   5.400   0.6226   0.00564   0.00144  -0.0028  0.0255  0.4520  -2.2360   0.0000   0.2483
   5.500   0.6340   0.00568   0.00147  -0.0029  0.0244  0.4602  -2.2956   0.0000   0.2482
   5.600   0.6453   0.00571   0.00150  -0.0029  0.0234  0.4677  -2.3556   0.0000   0.2481
   5.700   0.6567   0.00573   0.00153  -0.0029  0.0225  0.4749  -2.4161   0.0000   0.2480
   5.800   0.6681   0.00576   0.00156  -0.0030  0.0216  0.4773  -2.4776   0.0000   0.2479
   5.900   0.6796   0.00579   0.00160  -0.0030  0.0207  0.4792  -2.5397   0.0000   0.2478
   6.000   0.6910   0.00581   0.00162  -0.0031  0.0198  0.4871  -2.6023   0.0000   0.2477
   6.100   0.7024   0.00583   0.00165  -0.0031  0.0190  0.4960  -2.6653   0.0000   0.2476
   6.200   0.7138   0.00584   0.00167  -0.0031  0.0188  0.5035  -2.7288   0.0000   0.2475
   6.300   0.7253   0.00587   0.00170  -0.0032  0.0188  0.5057  -2.7932   0.0000   0.2474
   6.400   0.7367   0.00590   0.00173  -0.0032  0.0187  0.5074  -2.8580   0.0000   0.2473
   6.500   0.7482   0.00592   0.00176  -0.0033  0.0187  0.5137  -2.9234   0.0000   0.2472
   6.600   0.7596   0.00594   0.00179  -0.0033  0.0186  0.5231  -2.9891   0.0000   0.2471
   6.700   0.7709   0.00596   0.00182  -0.0034  0.0185  0.5316  -3.0551   0.0000   0.2470
   6.800   0.7823   0.00599   0.00185  -0.0034  0.0183  0.5347  -3.1319   0.0000   0.2469
   6.900   0.7936   0.00603   0.00189  -0.0034  0.0178  0.5364  -3.2104   0.0000   0.2468
   7.000   0.8049   0.00608   0.00194  -0.0034  0.0172  0.5412  -3.2894   0.0000   0.2466
   7.100   0.8161   0.00612   0.00198  -0.0034  0.0167  0.5503  -3.3697   0.0000   0.2465
   7.200   0.8273   0.00616   0.00203  -0.0034  0.0160  0.5591  -3.4498   0.0000   0.2464
   7.300   0.8385   0.00620   0.00207  -0.0035  0.0152  0.5631  -3.5307   0.0000   0.2462
   7.400   0.8498   0.00624   0.00211  -0.0035  0.0142  0.5656  -3.6127   0.0000   0.2461
   7.500   0.8611   0.00629   0.00216  -0.0035  0.0133  0.5707  -3.6956   0.0000   0.2460
   7.600   0.8724   0.00632   0.00219  -0.0035  0.0125  0.5796  -3.7792   0.0000   0.2458
   7.700   0.8836   0.00634   0.00223  -0.0036  0.0121  0.5880  -3.8634   0.0000   0.2457
   7.900   0.9062   0.00640   0.00230  -0.0036  0.0121  0.5948  -4.0345   0.0000   0.2455
   8.000   0.9176   0.00644   0.00234  -0.0036  0.0121  0.5994  -4.1212   0.0000   0.2453
   8.100   0.9288   0.00647   0.00238  -0.0037  0.0121  0.6093  -4.2084   0.0000   0.2452
   8.200   0.9400   0.00649   0.00241  -0.0037  0.0120  0.6181  -4.2961   0.0000   0.2451
   8.300   0.9513   0.00652   0.00245  -0.0037  0.0120  0.6218  -4.3847   0.0000   0.2449
   8.400   0.9626   0.00656   0.00249  -0.0037  0.0120  0.6243  -4.4740   0.0000   0.2448
   8.500   0.9738   0.00660   0.00254  -0.0037  0.0120  0.6292  -4.5641   0.0000   0.2447
   8.600   0.9850   0.00663   0.00258  -0.0038  0.0119  0.6391  -4.6546   0.0000   0.2445
   8.700   0.9962   0.00666   0.00262  -0.0038  0.0119  0.6482  -4.7456   0.0000   0.2444
   8.800   1.0074   0.00670   0.00266  -0.0038  0.0119  0.6516  -4.8370   0.0000   0.2442
   8.900   1.0186   0.00674   0.00270  -0.0038  0.0118  0.6540  -4.9296   0.0000   0.2441
   9.000   1.0297   0.00678   0.00276  -0.0038  0.0117  0.6604  -5.0227   0.0000   0.2439
   9.100   1.0408   0.00683   0.00281  -0.0038  0.0115  0.6701  -5.1160   0.0000   0.2438
   9.200   1.0517   0.00688   0.00287  -0.0038  0.0112  0.6791  -5.2092   0.0000   0.2436
   9.300   1.0627   0.00694   0.00293  -0.0038  0.0108  0.6816  -5.3033   0.0000   0.2434
   9.400   1.0737   0.00701   0.00300  -0.0037  0.0105  0.6842  -5.3980   0.0000   0.2432
   9.500   1.0846   0.00707   0.00306  -0.0037  0.0101  0.6921  -5.4932   0.0000   0.2431
   9.600   1.0955   0.00713   0.00312  -0.0037  0.0098  0.7016  -5.5890   0.0000   0.2429
   9.700   1.1065   0.00717   0.00318  -0.0037  0.0095  0.7091  -5.6855   0.0000   0.2427
   9.800   1.1174   0.00723   0.00324  -0.0036  0.0092  0.7114  -5.7831   0.0000   0.2425
   9.900   1.1285   0.00729   0.00330  -0.0036  0.0089  0.7153  -5.8815   0.0000   0.2423
  10.000   1.1394   0.00734   0.00336  -0.0036  0.0086  0.7251  -5.9805   0.0000   0.2422
  10.100   1.1504   0.00738   0.00341  -0.0036  0.0084  0.7345  -6.0799   0.0000   0.2420
  10.200   1.1613   0.00743   0.00346  -0.0036  0.0081  0.7382  -6.1802   0.0000   0.2418
  10.300   1.1723   0.00748   0.00352  -0.0036  0.0079  0.7412  -6.2814   0.0000   0.2416
  10.400   1.1833   0.00754   0.00358  -0.0036  0.0076  0.7481  -6.3831   0.0000   0.2414
  10.500   1.1942   0.00758   0.00364  -0.0035  0.0073  0.7585  -6.4855   0.0000   0.2413
  10.700   1.2160   0.00767   0.00374  -0.0035  0.0070  0.7687  -6.6920   0.0000   0.2409
  10.800   1.2270   0.00773   0.00381  -0.0035  0.0069  0.7727  -6.7964   0.0000   0.2407
  10.900   1.2379   0.00778   0.00386  -0.0035  0.0069  0.7823  -6.9014   0.0000   0.2405
  11.000   1.2487   0.00782   0.00392  -0.0034  0.0069  0.7921  -7.0066   0.0000   0.2403
  11.100   1.2596   0.00787   0.00397  -0.0034  0.0069  0.7955  -7.1129   0.0000   0.2401
  11.200   1.2705   0.00793   0.00404  -0.0034  0.0069  0.7990  -7.2198   0.0000   0.2400
  11.300   1.2813   0.00798   0.00410  -0.0034  0.0068  0.8081  -7.3272   0.0000   0.2398
  11.400   1.2921   0.00802   0.00415  -0.0033  0.0068  0.8180  -7.4348   0.0000   0.2396
  11.500   1.3029   0.00808   0.00421  -0.0033  0.0068  0.8217  -7.5434   0.0000   0.2394
  11.600   1.3137   0.00813   0.00428  -0.0032  0.0068  0.8249  -7.6526   0.0000   0.2392
  11.700   1.3245   0.00819   0.00434  -0.0032  0.0068  0.8332  -7.7624   0.0000   0.2390
  11.800   1.3352   0.00824   0.00440  -0.0032  0.0068  0.8435  -7.8723   0.0000   0.2388
  11.900   1.3459   0.00829   0.00447  -0.0031  0.0068  0.8480  -7.9831   0.0000   0.2385
  12.000   1.3567   0.00835   0.00454  -0.0031  0.0068  0.8514  -8.0956   0.0000   0.2383
  12.100   1.3674   0.00841   0.00460  -0.0030  0.0068  0.8594  -8.2227   0.0000   0.2381
  12.200   1.3780   0.00846   0.00467  -0.0030  0.0068  0.8694  -8.3503   0.0000   0.2379
  12.300   1.3887   0.00852   0.00473  -0.0029  0.0068  0.8738  -8.4788   0.0000   0.2377
  12.400   1.3993   0.00858   0.00480  -0.0029  0.0068  0.8771  -8.6082   0.0000   0.2375
  12.500   1.4099   0.00864   0.00487  -0.0028  0.0068  0.8857  -8.7381   0.0000   0.2373
  12.600   1.4205   0.00869   0.00494  -0.0027  0.0068  0.8953  -8.8682   0.0000   0.2370
  12.700   1.4310   0.00876   0.00501  -0.0027  0.0068  0.8989  -8.9995   0.0000   0.2368
  12.800   1.4416   0.00882   0.00508  -0.0026  0.0068  0.9026  -9.1317   0.0000   0.2366
  12.900   1.4521   0.00888   0.00515  -0.0025  0.0068  0.9120  -9.2642   0.0000   0.2363
  13.000   1.4625   0.00894   0.00522  -0.0024  0.0067  0.9191  -9.3970   0.0000   0.2361
  13.100   1.4730   0.00901   0.00529  -0.0023  0.0067  0.9226  -9.5310   0.0000   0.2359
  13.200   1.4835   0.00908   0.00537  -0.0023  0.0067  0.9274  -9.6659   0.0000   0.2356
  13.300   1.4937   0.00914   0.00545  -0.0022  0.0067  0.9370  -9.8002   0.0000   0.2354
  13.400   1.5040   0.00920   0.00552  -0.0020  0.0067  0.9422  -9.9356   0.0000   0.2351
  13.500   1.5144   0.00928   0.00560  -0.0019  0.0067  0.9447  -10.0722   0.0000   0.2349
  13.600   1.5246   0.00935   0.00568  -0.0018  0.0067  0.9522  -10.2088   0.0000   0.2346
  13.700   1.5347   0.00941   0.00575  -0.0017  0.0067  0.9587  -10.3450   0.0000   0.2343
  13.800   1.5448   0.00948   0.00583  -0.0015  0.0067  0.9624  -10.4827   0.0000   0.2340
  13.900   1.5550   0.00956   0.00592  -0.0014  0.0067  0.9658  -10.6212   0.0000   0.2338
  14.000   1.5647   0.00963   0.00600  -0.0012  0.0067  0.9731  -10.7576   0.0000   0.2334
  14.100   1.5746   0.00971   0.00608  -0.0010  0.0067  0.9778  -10.8955   0.0000   0.2331
  14.200   1.5847   0.00979   0.00616  -0.0008  0.0067  0.9797  -11.0361   0.0000   0.2329
  14.300   1.5944   0.00987   0.00624  -0.0006  0.0066  0.9847  -11.1744   0.0000   0.2325
  14.400   1.6038   0.00994   0.00633  -0.0003  0.0066  0.9895  -11.3120   0.0000   0.2322
  14.500   1.6137   0.01003   0.00641  -0.0002  0.0066  0.9915  -11.4535   0.0000   0.2319
  14.600   1.6238   0.01012   0.00650  -0.0000  0.0066  0.9924  -11.5966   0.0000   0.2316
  14.700   1.6342   0.01021   0.00659   0.0000  0.0066  0.9938  -11.7430   0.0000   0.2314
  14.800   1.6451   0.01031   0.00669  -0.0001  0.0065  0.9955  -11.8936   0.0000   0.2313
  14.900   1.6559   0.01041   0.00679  -0.0001  0.0065  0.9971  -12.0441   0.0000   0.2311
  15.000   1.6665   0.01052   0.00689  -0.0001  0.0065  0.9987  -12.1937   0.0000   0.2309
  15.100   1.6766   0.01064   0.00701  -0.0000  0.0064  1.0000  -12.3407   0.0000   0.2307
  15.200   1.6861   0.01077   0.00713   0.0002  0.0063  1.0000  -12.4847   0.0000   0.2304
  15.300   1.6956   0.01090   0.00726   0.0004  0.0062  1.0000  -12.6284   0.0000   0.2300
  15.400   1.7050   0.01104   0.00739   0.0006  0.0060  1.0000  -12.7724   0.0000   0.2297
  15.500   1.7143   0.01117   0.00752   0.0008  0.0059  1.0000  -12.9168   0.0000   0.2294
  15.600   1.7237   0.01130   0.00765   0.0010  0.0058  1.0000  -13.0622   0.0000   0.2291
  15.700   1.7330   0.01144   0.00778   0.0013  0.0057  1.0000  -13.2077   0.0000   0.2288
  15.800   1.7423   0.01157   0.00792   0.0015  0.0056  1.0000  -13.3534   0.0000   0.2284
  15.900   1.7515   0.01171   0.00805   0.0017  0.0055  1.0000  -13.4995   0.0000   0.2281
  16.000   1.7606   0.01185   0.00819   0.0020  0.0053  1.0000  -13.6459   0.0000   0.2278
  16.100   1.7698   0.01199   0.00832   0.0022  0.0052  1.0000  -13.7928   0.0000   0.2274
  16.200   1.7789   0.01213   0.00846   0.0025  0.0051  1.0000  -13.9401   0.0000   0.2271
  16.300   1.7879   0.01226   0.00859   0.0027  0.0050  1.0000  -14.0879   0.0000   0.2268
  16.400   1.7969   0.01240   0.00873   0.0030  0.0049  1.0000  -14.2362   0.0000   0.2264
  16.500   1.8059   0.01254   0.00887   0.0032  0.0048  1.0000  -14.3849   0.0000   0.2261
  16.600   1.8149   0.01267   0.00900   0.0035  0.0047  1.0000  -14.5341   0.0000   0.2257
  16.700   1.8238   0.01281   0.00914   0.0038  0.0046  1.0000  -14.6837   0.0000   0.2254
  16.800   1.8327   0.01294   0.00927   0.0041  0.0046  1.0000  -14.8337   0.0000   0.2250
  16.900   1.8415   0.01308   0.00941   0.0043  0.0045  1.0000  -14.9840   0.0000   0.2247
  17.000   1.8503   0.01322   0.00954   0.0046  0.0044  1.0000  -15.1346   0.0000   0.2243
  17.100   1.8591   0.01335   0.00968   0.0049  0.0043  1.0000  -15.2855   0.0000   0.2240
  17.200   1.8677   0.01349   0.00981   0.0052  0.0042  1.0000  -15.4366   0.0000   0.2236
  17.300   1.8764   0.01363   0.00995   0.0055  0.0041  1.0000  -15.5879   0.0000   0.2233
  17.400   1.8849   0.01377   0.01009   0.0058  0.0041  1.0000  -15.7391   0.0000   0.2229
  17.500   1.8934   0.01391   0.01023   0.0062  0.0040  1.0000  -15.8905   0.0000   0.2225
  17.600   1.9018   0.01405   0.01037   0.0065  0.0039  1.0000  -16.0420   0.0000   0.2222
  17.700   1.9101   0.01419   0.01052   0.0068  0.0038  1.0000  -16.1935   0.0000   0.2218
  17.800   1.9183   0.01434   0.01066   0.0072  0.0038  1.0000  -16.3449   0.0000   0.2214
  17.900   1.9265   0.01448   0.01081   0.0076  0.0037  1.0000  -16.4962   0.0000   0.2210
  18.000   1.9345   0.01463   0.01096   0.0079  0.0036  1.0000  -16.6473   0.0000   0.2206
  18.100   1.9425   0.01478   0.01111   0.0083  0.0036  1.0000  -16.7980   0.0000   0.2202
  18.200   1.9503   0.01493   0.01126   0.0087  0.0035  1.0000  -16.9484   0.0000   0.2198
  18.300   1.9580   0.01509   0.01142   0.0092  0.0034  1.0000  -17.0985   0.0000   0.2194
  18.400   1.9656   0.01525   0.01158   0.0096  0.0033  1.0000  -17.2482   0.0000   0.2189
  18.500   1.9729   0.01540   0.01173   0.0101  0.0033  1.0000  -17.3959   0.0000   0.2185
  18.600   1.9798   0.01556   0.01189   0.0107  0.0032  1.0000  -17.5411   0.0000   0.2180
  18.700   1.9865   0.01572   0.01205   0.0113  0.0031  1.0000  -17.6847   0.0000   0.2175
  18.800   1.9922   0.01588   0.01222   0.0120  0.0031  1.0000  -17.8209   0.0000   0.2169
  18.900   1.9970   0.01604   0.01239   0.0130  0.0031  1.0000  -17.9498   0.0000   0.2162
  19.000   2.0015   0.01622   0.01257   0.0140  0.0031  1.0000  -18.0775   0.0000   0.2155
  19.100   2.0067   0.01640   0.01275   0.0148  0.0031  1.0000  -18.2101   0.0000   0.2149
  19.200   2.0117   0.01659   0.01295   0.0156  0.0031  1.0000  -18.3417   0.0000   0.2143
  19.300   2.0163   0.01679   0.01315   0.0165  0.0031  1.0000  -18.4705   0.0000   0.2137
  19.400   2.0214   0.01699   0.01336   0.0172  0.0031  1.0000  -18.6037   0.0000   0.2131
  19.500   2.0263   0.01720   0.01358   0.0180  0.0031  1.0000  -18.7355   0.0000   0.2125
  19.600   2.0311   0.01743   0.01381   0.0188  0.0031  1.0000  -18.8661   0.0000   0.2119
  19.700   2.0362   0.01766   0.01404   0.0195  0.0031  1.0000  -19.0001   0.0000   0.2114
  19.800   2.0410   0.01789   0.01428   0.0202  0.0031  1.0000  -19.1313   0.0000   0.2108
  19.900   2.0449   0.01815   0.01455   0.0210  0.0031  1.0000  -19.2559   0.0000   0.2102
  20.000   2.0497   0.01841   0.01482   0.0217  0.0031  1.0000  -19.3872   0.0000   0.2097


