xflr5 v6.32

 Calculated polar for: NACA 0012

 1 1 Reynolds number fixed          Mach number fixed         

 xtrf =   1.000 (top)        1.000 (bottom)
 Mach =   0.000     Re =     0.100 e 6     Ncrit =   9.000

  alpha     CL        CD       CDp       Cm    Top Xtr Bot Xtr   Cpmin    Chinge    XCp    
 ------- -------- --------- --------- -------- ------- ------- -------- --------- ---------
 -15.000  -0.6887   0.18072   0.17518   0.0249  1.0000  0.1040  -1.8009   0.0000   0.2712
 -14.900  -0.6758   0.17838   0.17281   0.0262  1.0000  0.1050  -1.7262   0.0000   0.2740
 -14.800  -0.6676   0.17670   0.17112   0.0268  1.0000  0.1061  -1.6794   0.0000   0.2754
 -14.700  -0.6619   0.17527   0.16968   0.0270  1.0000  0.1073  -1.6480   0.0000   0.2762
 -14.600  -0.6576   0.17393   0.16833   0.0269  1.0000  0.1086  -1.6264   0.0000   0.2764
 -14.500  -0.6544   0.17259   0.16699   0.0266  1.0000  0.1101  -1.6125   0.0000   0.2763
 -14.400  -0.6522   0.17123   0.16563   0.0261  1.0000  0.1118  -1.6056   0.0000   0.2758
 -14.300  -0.6512   0.16986   0.16426   0.0254  1.0000  0.1137  -1.6113   0.0000   0.2748
 -14.200  -0.6530   0.16858   0.16299   0.0242  1.0000  0.1159  -1.6374   0.0000   0.2730
 -14.100  -0.6647   0.16792   0.16236   0.0213  1.0000  0.1181  -1.7138   0.0000   0.2682
 -14.000  -0.6789   0.16702   0.16151   0.0178  1.0000  0.1191  -1.8077   0.0000   0.2626
 -13.900  -0.6878   0.16567   0.16018   0.0153  1.0000  0.1194  -1.8736   0.0000   0.2587
 -13.800  -0.6943   0.16405   0.15858   0.0133  1.0000  0.1196  -1.9262   0.0000   0.2557
 -13.700  -0.6579   0.16020   0.15467   0.0196  1.0000  0.1224  -1.7366   0.0000   0.2664
 -13.600  -0.6438   0.15918   0.15362   0.0213  1.0000  0.1252  -1.6659   0.0000   0.2696
 -13.500  -0.6390   0.15800   0.15243   0.0213  1.0000  0.1275  -1.6490   0.0000   0.2701
 -13.400  -0.6371   0.15669   0.15113   0.0209  1.0000  0.1297  -1.6485   0.0000   0.2697
 -13.300  -0.6376   0.15535   0.14978   0.0201  1.0000  0.1320  -1.6612   0.0000   0.2685
 -13.200  -0.6442   0.15411   0.14856   0.0183  1.0000  0.1347  -1.7049   0.0000   0.2656
 -13.100  -0.6645   0.15316   0.14767   0.0141  1.0000  0.1367  -1.8188   0.0000   0.2586
 -13.000  -0.6782   0.15172   0.14627   0.0109  1.0000  0.1372  -1.9009   0.0000   0.2537
 -12.900  -0.6879   0.14999   0.14458   0.0085  1.0000  0.1375  -1.9632   0.0000   0.2501
 -12.700  -0.6599   0.14435   0.13889   0.0123  1.0000  0.1394  -1.8474   0.0000   0.2564
 -12.600  -0.6506   0.14281   0.13733   0.0132  1.0000  0.1403  -1.8097   0.0000   0.2581
 -12.500  -0.6432   0.14140   0.13586   0.0138  1.0000  0.1413  -1.7798   0.0000   0.2593
 -12.400  -0.6374   0.14004   0.13449   0.0141  1.0000  0.1424  -1.7590   0.0000   0.2601
 -12.300  -0.6331   0.13867   0.13311   0.0142  1.0000  0.1437  -1.7452   0.0000   0.2604
 -12.200  -0.6301   0.13725   0.13170   0.0140  1.0000  0.1452  -1.7382   0.0000   0.2604
 -12.100  -0.6284   0.13577   0.13021   0.0137  1.0000  0.1468  -1.7378   0.0000   0.2600
 -12.000  -0.6280   0.13419   0.12864   0.0131  1.0000  0.1485  -1.7445   0.0000   0.2592
 -11.900  -0.6296   0.13251   0.12696   0.0122  1.0000  0.1505  -1.7608   0.0000   0.2578
 -11.800  -0.6391   0.13066   0.12514   0.0100  1.0000  0.1536  -1.8149   0.0000   0.2542
 -11.700  -0.6800   0.12826   0.12290   0.0025  1.0000  0.1563  -2.0187   0.0000   0.2426
 -11.600  -0.6928   0.12572   0.12040  -0.0003  1.0000  0.1565  -2.0899   0.0000   0.2386
 -11.500  -0.6924   0.12270   0.11740  -0.0007  1.0000  0.1569  -2.1012   0.0000   0.2380
 -11.400  -0.6820   0.12030   0.11498   0.0006  1.0000  0.1575  -2.0631   0.0000   0.2401
 -11.300  -0.6778   0.11819   0.11281   0.0008  1.0000  0.1578  -2.0522   0.0000   0.2404
 -11.200  -0.6790   0.11585   0.11048  -0.0000  1.0000  0.1579  -2.0704   0.0000   0.2393
 -11.100  -0.6900   0.11283   0.10754  -0.0027  1.0000  0.1575  -2.1406   0.0000   0.2354
 -11.000  -0.9573   0.05996   0.05356  -0.0296  1.0000  0.0739  -4.0763   0.0000   0.2077
 -10.900  -0.9612   0.05836   0.05188  -0.0288  1.0000  0.0741  -4.0854   0.0000   0.2087
 -10.800  -0.9644   0.05681   0.05023  -0.0281  1.0000  0.0743  -4.0923   0.0000   0.2096
 -10.700  -0.9671   0.05527   0.04858  -0.0273  1.0000  0.0745  -4.0989   0.0000   0.2106
 -10.600  -0.9694   0.05373   0.04692  -0.0265  1.0000  0.0746  -4.1060   0.0000   0.2116
 -10.500  -0.9712   0.05219   0.04525  -0.0257  1.0000  0.0747  -4.1126   0.0000   0.2127
 -10.400  -0.9718   0.05072   0.04366  -0.0249  1.0000  0.0749  -4.1129   0.0000   0.2136
 -10.300  -0.9712   0.04933   0.04216  -0.0241  1.0000  0.0752  -4.1069   0.0000   0.2145
 -10.200  -0.9698   0.04803   0.04075  -0.0234  1.0000  0.0756  -4.0958   0.0000   0.2153
 -10.100  -0.9677   0.04680   0.03942  -0.0226  1.0000  0.0760  -4.0808   0.0000   0.2161
 -10.000  -0.9649   0.04563   0.03816  -0.0219  1.0000  0.0765  -4.0624   0.0000   0.2169
  -9.900  -0.9609   0.04456   0.03700  -0.0213  1.0000  0.0771  -4.0379   0.0000   0.2175
  -9.800  -0.9569   0.04350   0.03580  -0.0206  1.0000  0.0778  -4.0148   0.0000   0.2182
  -9.700  -0.9528   0.04246   0.03465  -0.0200  1.0000  0.0785  -3.9909   0.0000   0.2189
  -9.600  -0.9486   0.04143   0.03350  -0.0193  1.0000  0.0793  -3.9671   0.0000   0.2197
  -9.500  -0.9443   0.04041   0.03236  -0.0185  1.0000  0.0802  -3.9433   0.0000   0.2204
  -9.400  -0.9397   0.03941   0.03123  -0.0178  1.0000  0.0811  -3.9194   0.0000   0.2212
  -9.300  -0.9350   0.03843   0.03010  -0.0171  1.0000  0.0821  -3.8949   0.0000   0.2220
  -9.200  -0.9299   0.03748   0.02900  -0.0163  1.0000  0.0832  -3.8697   0.0000   0.2228
  -9.100  -0.9246   0.03658   0.02794  -0.0155  1.0000  0.0842  -3.8434   0.0000   0.2236
  -9.000  -0.9191   0.03576   0.02694  -0.0148  1.0000  0.0853  -3.8154   0.0000   0.2245
  -8.900  -0.9133   0.03506   0.02605  -0.0140  1.0000  0.0864  -3.7850   0.0000   0.2253
  -8.800  -0.9073   0.03395   0.02482  -0.0134  1.0000  0.0879  -3.7538   0.0000   0.2260
  -8.700  -0.8992   0.03292   0.02389  -0.0132  1.0000  0.0901  -3.6980   0.0000   0.2261
  -8.600  -0.8912   0.03247   0.02350  -0.0129  1.0000  0.0924  -3.6361   0.0000   0.2264
  -8.500  -0.8837   0.03206   0.02307  -0.0124  1.0000  0.0948  -3.5810   0.0000   0.2269
  -8.400  -0.8763   0.03158   0.02252  -0.0119  1.0000  0.0972  -3.5320   0.0000   0.2275
  -8.300  -0.8690   0.03103   0.02186  -0.0113  1.0000  0.0996  -3.4886   0.0000   0.2282
  -8.200  -0.8617   0.03050   0.02117  -0.0106  1.0000  0.1016  -3.4481   0.0000   0.2290
  -8.100  -0.8540   0.02975   0.02029  -0.0100  1.0000  0.1033  -3.4090   0.0000   0.2297
  -8.000  -0.8448   0.02863   0.01925  -0.0099  1.0000  0.1057  -3.3589   0.0000   0.2298
  -7.900  -0.8361   0.02803   0.01871  -0.0095  1.0000  0.1081  -3.3034   0.0000   0.2302
  -7.800  -0.8277   0.02753   0.01821  -0.0091  1.0000  0.1107  -3.2504   0.0000   0.2307
  -7.700  -0.8193   0.02704   0.01767  -0.0086  1.0000  0.1136  -3.2003   0.0000   0.2312
  -7.600  -0.8111   0.02655   0.01709  -0.0080  1.0000  0.1167  -3.1527   0.0000   0.2319
  -7.500  -0.8029   0.02617   0.01655  -0.0074  1.0000  0.1195  -3.1056   0.0000   0.2327
  -7.400  -0.7942   0.02527   0.01574  -0.0072  1.0000  0.1234  -3.0488   0.0000   0.2329
  -7.300  -0.7863   0.02489   0.01544  -0.0067  1.0000  0.1275  -2.9912   0.0000   0.2335
  -7.200  -0.7785   0.02457   0.01510  -0.0062  1.0000  0.1323  -2.9378   0.0000   0.2343
  -7.100  -0.7707   0.02429   0.01468  -0.0055  1.0000  0.1369  -2.8890   0.0000   0.2351
  -7.000  -0.7624   0.02356   0.01409  -0.0051  1.0000  0.1418  -2.8448   0.0000   0.2356
  -6.900  -0.7546   0.02318   0.01377  -0.0046  1.0000  0.1468  -2.8011   0.0000   0.2364
  -6.800  -0.7465   0.02282   0.01337  -0.0040  1.0000  0.1525  -2.7611   0.0000   0.2372
  -6.700  -0.7383   0.02232   0.01285  -0.0034  1.0000  0.1582  -2.7233   0.0000   0.2379
  -6.600  -0.7307   0.02182   0.01248  -0.0029  1.0000  0.1641  -2.6804   0.0000   0.2387
  -6.500  -0.7230   0.02149   0.01215  -0.0023  1.0000  0.1713  -2.6387   0.0000   0.2396
  -6.400  -0.7153   0.02107   0.01174  -0.0017  1.0000  0.1792  -2.5984   0.0000   0.2405
  -6.300  -0.7082   0.02070   0.01148  -0.0010  1.0000  0.1873  -2.5547   0.0000   0.2415
  -6.200  -0.7004   0.02045   0.01116  -0.0004  1.0000  0.1972  -2.5134   0.0000   0.2425
  -6.100  -0.6936   0.01996   0.01086   0.0003  1.0000  0.2064  -2.4709   0.0000   0.2435
  -6.000  -0.6859   0.01969   0.01056   0.0009  1.0000  0.2178  -2.4290   0.0000   0.2446
  -5.900  -0.6790   0.01925   0.01029   0.0016  1.0000  0.2284  -2.3870   0.0000   0.2457
  -5.800  -0.6714   0.01899   0.00999   0.0022  1.0000  0.2417  -2.3449   0.0000   0.2468
  -5.700  -0.6647   0.01859   0.00978   0.0030  1.0000  0.2538  -2.3022   0.0000   0.2480
  -5.600  -0.6573   0.01830   0.00952   0.0036  1.0000  0.2687  -2.2596   0.0000   0.2491
  -5.500  -0.6504   0.01801   0.00934   0.0043  1.0000  0.2831  -2.2162   0.0000   0.2504
  -5.400  -0.6433   0.01771   0.00915   0.0050  1.0000  0.2982  -2.1729   0.0000   0.2516
  -5.300  -0.6358   0.01750   0.00894   0.0057  1.0000  0.3150  -2.1289   0.0000   0.2529
  -5.200  -0.6288   0.01720   0.00875   0.0065  1.0000  0.3298  -2.0834   0.0000   0.2542
  -5.100  -0.6214   0.01697   0.00858   0.0071  1.0000  0.3464  -2.0396   0.0000   0.2555
  -5.000  -0.6141   0.01677   0.00845   0.0078  1.0000  0.3631  -1.9955   0.0000   0.2569
  -4.900  -0.6067   0.01654   0.00834   0.0085  1.0000  0.3787  -1.9512   0.0000   0.2583
  -4.800  -0.5990   0.01639   0.00819   0.0092  1.0000  0.3960  -1.9071   0.0000   0.2597
  -4.700  -0.5916   0.01618   0.00812   0.0099  1.0000  0.4112  -1.8626   0.0000   0.2612
  -4.600  -0.5839   0.01602   0.00800   0.0106  1.0000  0.4275  -1.8192   0.0000   0.2626
  -4.500  -0.5762   0.01587   0.00793   0.0113  1.0000  0.4437  -1.7817   0.0000   0.2641
  -4.400  -0.5684   0.01571   0.00785   0.0120  1.0000  0.4591  -1.7441   0.0000   0.2657
  -4.300  -0.5605   0.01559   0.00776   0.0126  1.0000  0.4756  -1.7067   0.0000   0.2672
  -4.200  -0.5526   0.01543   0.00772   0.0133  1.0000  0.4900  -1.6689   0.0000   0.2689
  -4.100  -0.5446   0.01534   0.00761   0.0139  1.0000  0.5067  -1.6319   0.0000   0.2705
  -4.000  -0.5366   0.01519   0.00761   0.0147  1.0000  0.5207  -1.5939   0.0000   0.2723
  -3.900  -0.5286   0.01511   0.00751   0.0153  1.0000  0.5373  -1.5572   0.0000   0.2739
  -3.800  -0.5204   0.01498   0.00752   0.0160  1.0000  0.5509  -1.5193   0.0000   0.2759
  -3.700  -0.5123   0.01491   0.00744   0.0166  1.0000  0.5671  -1.4829   0.0000   0.2776
  -3.600  -0.5040   0.01480   0.00745   0.0173  1.0000  0.5807  -1.4452   0.0000   0.2797
  -3.500  -0.4959   0.01473   0.00738   0.0180  1.0000  0.5967  -1.4091   0.0000   0.2816
  -3.400  -0.4875   0.01464   0.00741   0.0187  1.0000  0.6100  -1.3717   0.0000   0.2838
  -3.300  -0.4794   0.01458   0.00735   0.0193  1.0000  0.6259  -1.3360   0.0000   0.2858
  -3.200  -0.4710   0.01452   0.00740   0.0201  1.0000  0.6391  -1.2987   0.0000   0.2882
  -3.100  -0.4629   0.01446   0.00729   0.0207  1.0000  0.6549  -1.2645   0.0000   0.2904
  -3.000  -0.4545   0.01442   0.00735   0.0215  1.0000  0.6676  -1.2330   0.0000   0.2931
  -2.800  -0.4380   0.01435   0.00739   0.0230  1.0000  0.6960  -1.1723   0.0000   0.2984
  -2.700  -0.4301   0.01432   0.00736   0.0237  1.0000  0.7116  -1.1431   0.0000   0.3010
  -2.600  -0.4217   0.01432   0.00745   0.0245  1.0000  0.7239  -1.1124   0.0000   0.3042
  -2.500  -0.4138   0.01431   0.00745   0.0253  1.0000  0.7393  -1.0836   0.0000   0.3071
  -2.400  -0.4054   0.01433   0.00755   0.0261  1.0000  0.7516  -1.0533   0.0000   0.3106
  -2.300  -0.3976   0.01434   0.00758   0.0269  1.0000  0.7665  -1.0249   0.0000   0.3139
  -2.200  -0.3892   0.01438   0.00768   0.0278  1.0000  0.7788  -0.9953   0.0000   0.3177
  -2.100  -0.3816   0.01441   0.00773   0.0286  1.0000  0.7934  -0.9704   0.0000   0.3214
  -2.000  -0.3733   0.01447   0.00784   0.0295  1.0000  0.8058  -0.9451   0.0000   0.3255
  -1.900  -0.3657   0.01453   0.00791   0.0304  1.0000  0.8199  -0.9211   0.0000   0.3297
  -1.800  -0.3572   0.01462   0.00803   0.0312  1.0000  0.8323  -0.8959   0.0000   0.3341
  -1.700  -0.3494   0.01470   0.00813   0.0321  1.0000  0.8464  -0.8718   0.0000   0.3386
  -1.600  -0.3400   0.01481   0.00826   0.0328  1.0000  0.8586  -0.8458   0.0000   0.3431
  -1.500  -0.3313   0.01491   0.00837   0.0334  1.0000  0.8725  -0.8216   0.0000   0.3478
  -1.400  -0.3198   0.01506   0.00853   0.0337  1.0000  0.8842  -0.7966   0.0000   0.3522
  -1.300  -0.3095   0.01519   0.00866   0.0340  1.0000  0.8982  -0.7732   0.0000   0.3567
  -1.200  -0.2935   0.01537   0.00884   0.0333  1.0000  0.9086  -0.7434   0.0000   0.3604
  -1.100  -0.2800   0.01552   0.00894   0.0329  1.0000  0.9218  -0.7170   0.0000   0.3646
  -1.000  -0.2583   0.01573   0.00914   0.0310  1.0000  0.9305  -0.6852   0.0000   0.3671
  -0.900  -0.2390   0.01591   0.00930   0.0294  1.0000  0.9412  -0.6563   0.0000   0.3702
  -0.800  -0.2152   0.01610   0.00946   0.0269  1.0000  0.9491  -0.6243   0.0000   0.3724
  -0.700  -0.1895   0.01629   0.00963   0.0240  1.0000  0.9565  -0.5930   0.0000   0.3741
  -0.600  -0.1650   0.01644   0.00976   0.0213  1.0000  0.9646  -0.5640   0.0000   0.3762
  -0.500  -0.1351   0.01658   0.00988   0.0174  1.0000  0.9694  -0.5327   0.0000   0.3764
  -0.400  -0.1083   0.01670   0.00999   0.0141  1.0000  0.9763  -0.5054   0.0000   0.3778
  -0.300  -0.0816   0.01680   0.01007   0.0108  1.0000  0.9825  -0.4797   0.0000   0.3793
  -0.200  -0.0540   0.01687   0.01014   0.0072  1.0000  0.9884  -0.4547   0.0000   0.3800
  -0.100  -0.0267   0.01693   0.01020   0.0036  1.0000  0.9945  -0.4311   0.0000   0.3813
   0.000  -0.0000   0.01697   0.01024   0.0000  1.0000  1.0000  -0.4093   0.0000   0.3810
   0.200   0.0540   0.01687   0.01014  -0.0072  0.9884  1.0000  -0.4547   0.0000   0.3800
   0.300   0.0816   0.01679   0.01007  -0.0108  0.9825  1.0000  -0.4797   0.0000   0.3792
   0.400   0.1083   0.01670   0.00999  -0.0141  0.9763  1.0000  -0.5053   0.0000   0.3778
   0.500   0.1350   0.01658   0.00988  -0.0174  0.9694  1.0000  -0.5326   0.0000   0.3764
   0.600   0.1650   0.01644   0.00976  -0.0213  0.9646  1.0000  -0.5639   0.0000   0.3761
   0.700   0.1894   0.01628   0.00962  -0.0240  0.9565  1.0000  -0.5930   0.0000   0.3741
   0.800   0.2152   0.01610   0.00946  -0.0269  0.9491  1.0000  -0.6243   0.0000   0.3724
   0.900   0.2390   0.01591   0.00930  -0.0294  0.9412  1.0000  -0.6562   0.0000   0.3702
   1.000   0.2583   0.01573   0.00914  -0.0310  0.9305  1.0000  -0.6851   0.0000   0.3671
   1.100   0.2800   0.01552   0.00894  -0.0329  0.9219  1.0000  -0.7170   0.0000   0.3646
   1.200   0.2934   0.01537   0.00884  -0.0333  0.9086  1.0000  -0.7434   0.0000   0.3604
   1.300   0.3094   0.01518   0.00865  -0.0340  0.8983  1.0000  -0.7731   0.0000   0.3567
   1.400   0.3198   0.01506   0.00853  -0.0337  0.8843  1.0000  -0.7965   0.0000   0.3522
   1.500   0.3313   0.01491   0.00837  -0.0334  0.8725  1.0000  -0.8215   0.0000   0.3478
   1.600   0.3399   0.01481   0.00826  -0.0328  0.8586  1.0000  -0.8457   0.0000   0.3431
   1.700   0.3493   0.01470   0.00813  -0.0321  0.8464  1.0000  -0.8717   0.0000   0.3386
   1.800   0.3571   0.01461   0.00803  -0.0312  0.8323  1.0000  -0.8958   0.0000   0.3340
   1.900   0.3656   0.01453   0.00791  -0.0304  0.8199  1.0000  -0.9210   0.0000   0.3297
   2.000   0.3732   0.01447   0.00783  -0.0295  0.8058  1.0000  -0.9450   0.0000   0.3255
   2.100   0.3815   0.01441   0.00773  -0.0286  0.7934  1.0000  -0.9703   0.0000   0.3214
   2.200   0.3891   0.01438   0.00767  -0.0278  0.7788  1.0000  -0.9952   0.0000   0.3176
   2.300   0.3975   0.01434   0.00757  -0.0269  0.7665  1.0000  -1.0247   0.0000   0.3139
   2.400   0.4053   0.01433   0.00755  -0.0261  0.7516  1.0000  -1.0532   0.0000   0.3106
   2.500   0.4137   0.01431   0.00745  -0.0252  0.7394  1.0000  -1.0834   0.0000   0.3071
   2.600   0.4216   0.01432   0.00745  -0.0245  0.7239  1.0000  -1.1122   0.0000   0.3042
   2.700   0.4300   0.01432   0.00736  -0.0237  0.7117  1.0000  -1.1429   0.0000   0.3009
   2.800   0.4379   0.01435   0.00739  -0.0230  0.6960  1.0000  -1.1721   0.0000   0.2983
   3.000   0.4544   0.01441   0.00735  -0.0215  0.6677  1.0000  -1.2328   0.0000   0.2930
   3.100   0.4628   0.01446   0.00729  -0.0207  0.6550  1.0000  -1.2643   0.0000   0.2904
   3.200   0.4709   0.01451   0.00739  -0.0201  0.6391  1.0000  -1.2985   0.0000   0.2882
   3.300   0.4793   0.01458   0.00735  -0.0193  0.6260  1.0000  -1.3358   0.0000   0.2858
   3.400   0.4874   0.01464   0.00741  -0.0187  0.6101  1.0000  -1.3715   0.0000   0.2838
   3.500   0.4958   0.01473   0.00738  -0.0179  0.5967  1.0000  -1.4089   0.0000   0.2815
   3.600   0.5039   0.01480   0.00745  -0.0173  0.5807  1.0000  -1.4450   0.0000   0.2797
   3.700   0.5122   0.01490   0.00743  -0.0166  0.5671  1.0000  -1.4826   0.0000   0.2776
   3.800   0.5203   0.01498   0.00752  -0.0160  0.5510  1.0000  -1.5191   0.0000   0.2758
   3.900   0.5285   0.01511   0.00751  -0.0152  0.5373  1.0000  -1.5570   0.0000   0.2739
   4.000   0.5365   0.01519   0.00760  -0.0146  0.5208  1.0000  -1.5937   0.0000   0.2723
   4.100   0.5445   0.01534   0.00761  -0.0139  0.5068  1.0000  -1.6316   0.0000   0.2704
   4.200   0.5525   0.01543   0.00771  -0.0133  0.4901  1.0000  -1.6687   0.0000   0.2689
   4.300   0.5604   0.01559   0.00776  -0.0126  0.4758  1.0000  -1.7065   0.0000   0.2672
   4.400   0.5683   0.01570   0.00785  -0.0119  0.4591  1.0000  -1.7438   0.0000   0.2657
   4.500   0.5761   0.01587   0.00792  -0.0113  0.4438  1.0000  -1.7815   0.0000   0.2641
   4.600   0.5837   0.01602   0.00800  -0.0106  0.4275  1.0000  -1.8190   0.0000   0.2626
   4.700   0.5915   0.01618   0.00812  -0.0099  0.4112  1.0000  -1.8623   0.0000   0.2611
   4.800   0.5989   0.01639   0.00819  -0.0092  0.3961  1.0000  -1.9068   0.0000   0.2596
   4.900   0.6066   0.01654   0.00834  -0.0085  0.3788  1.0000  -1.9510   0.0000   0.2583
   5.000   0.6140   0.01677   0.00845  -0.0078  0.3632  1.0000  -1.9952   0.0000   0.2569
   5.100   0.6213   0.01697   0.00858  -0.0071  0.3464  1.0000  -2.0393   0.0000   0.2555
   5.200   0.6288   0.01720   0.00875  -0.0064  0.3299  1.0000  -2.0832   0.0000   0.2542
   5.300   0.6357   0.01750   0.00893  -0.0057  0.3151  1.0000  -2.1287   0.0000   0.2528
   5.400   0.6432   0.01770   0.00915  -0.0050  0.2983  1.0000  -2.1727   0.0000   0.2516
   5.500   0.6503   0.01800   0.00934  -0.0043  0.2832  1.0000  -2.2160   0.0000   0.2503
   5.600   0.6572   0.01830   0.00952  -0.0036  0.2687  1.0000  -2.2594   0.0000   0.2491
   5.700   0.6646   0.01858   0.00978  -0.0029  0.2539  1.0000  -2.3020   0.0000   0.2479
   5.800   0.6713   0.01899   0.00999  -0.0022  0.2417  1.0000  -2.3447   0.0000   0.2467
   5.900   0.6790   0.01925   0.01028  -0.0016  0.2285  1.0000  -2.3868   0.0000   0.2456
   6.000   0.6859   0.01969   0.01056  -0.0009  0.2179  1.0000  -2.4289   0.0000   0.2445
   6.100   0.6935   0.01996   0.01086  -0.0002  0.2064  1.0000  -2.4708   0.0000   0.2435
   6.200   0.7004   0.02045   0.01115   0.0004  0.1973  1.0000  -2.5133   0.0000   0.2425
   6.300   0.7081   0.02069   0.01148   0.0011  0.1873  1.0000  -2.5546   0.0000   0.2415
   6.400   0.7152   0.02106   0.01174   0.0017  0.1792  1.0000  -2.5983   0.0000   0.2405
   6.500   0.7229   0.02149   0.01215   0.0023  0.1713  1.0000  -2.6385   0.0000   0.2396
   6.600   0.7307   0.02182   0.01247   0.0029  0.1641  1.0000  -2.6803   0.0000   0.2387
   6.700   0.7382   0.02232   0.01285   0.0035  0.1583  1.0000  -2.7232   0.0000   0.2379
   6.800   0.7464   0.02281   0.01337   0.0040  0.1525  1.0000  -2.7610   0.0000   0.2371
   6.900   0.7545   0.02318   0.01377   0.0046  0.1468  1.0000  -2.8010   0.0000   0.2363
   7.000   0.7624   0.02356   0.01408   0.0051  0.1418  1.0000  -2.8447   0.0000   0.2356
   7.100   0.7706   0.02429   0.01468   0.0055  0.1370  1.0000  -2.8890   0.0000   0.2351
   7.200   0.7784   0.02457   0.01509   0.0062  0.1323  1.0000  -2.9378   0.0000   0.2343
   7.300   0.7863   0.02489   0.01544   0.0067  0.1275  1.0000  -2.9912   0.0000   0.2335
   7.400   0.7942   0.02527   0.01574   0.0072  0.1234  1.0000  -3.0487   0.0000   0.2329
   7.500   0.8029   0.02616   0.01655   0.0074  0.1195  1.0000  -3.1056   0.0000   0.2327
   7.600   0.8111   0.02655   0.01709   0.0080  0.1167  1.0000  -3.1526   0.0000   0.2319
   7.700   0.8193   0.02703   0.01767   0.0086  0.1136  1.0000  -3.2003   0.0000   0.2312
   7.800   0.8277   0.02753   0.01821   0.0091  0.1107  1.0000  -3.2504   0.0000   0.2307
   7.900   0.8361   0.02803   0.01871   0.0095  0.1081  1.0000  -3.3035   0.0000   0.2302
   8.000   0.8449   0.02863   0.01925   0.0099  0.1057  1.0000  -3.3590   0.0000   0.2298
   8.100   0.8540   0.02975   0.02029   0.0100  0.1033  1.0000  -3.4090   0.0000   0.2297
   8.200   0.8617   0.03050   0.02117   0.0106  0.1015  1.0000  -3.4481   0.0000   0.2290
   8.300   0.8690   0.03103   0.02185   0.0113  0.0996  1.0000  -3.4887   0.0000   0.2282
   8.400   0.8763   0.03158   0.02252   0.0119  0.0972  1.0000  -3.5321   0.0000   0.2276
   8.500   0.8837   0.03206   0.02307   0.0124  0.0948  1.0000  -3.5811   0.0000   0.2270
   8.600   0.8912   0.03247   0.02350   0.0129  0.0923  1.0000  -3.6363   0.0000   0.2264
   8.700   0.8992   0.03292   0.02389   0.0132  0.0901  1.0000  -3.6982   0.0000   0.2261
   8.800   0.9074   0.03395   0.02483   0.0133  0.0879  1.0000  -3.7540   0.0000   0.2260
   8.900   0.9134   0.03506   0.02605   0.0139  0.0864  1.0000  -3.7852   0.0000   0.2253
   9.000   0.9192   0.03576   0.02694   0.0147  0.0853  1.0000  -3.8156   0.0000   0.2245
   9.100   0.9247   0.03658   0.02794   0.0155  0.0842  1.0000  -3.8436   0.0000   0.2237
   9.200   0.9300   0.03748   0.02900   0.0163  0.0832  1.0000  -3.8700   0.0000   0.2228
   9.300   0.9351   0.03843   0.03010   0.0170  0.0821  1.0000  -3.8952   0.0000   0.2220
   9.400   0.9399   0.03941   0.03123   0.0178  0.0811  1.0000  -3.9197   0.0000   0.2213
   9.500   0.9444   0.04041   0.03237   0.0185  0.0802  1.0000  -3.9437   0.0000   0.2205
   9.600   0.9488   0.04143   0.03351   0.0192  0.0793  1.0000  -3.9675   0.0000   0.2197
   9.700   0.9530   0.04246   0.03465   0.0199  0.0785  1.0000  -3.9913   0.0000   0.2190
   9.800   0.9571   0.04351   0.03580   0.0206  0.0778  1.0000  -4.0153   0.0000   0.2183
   9.900   0.9611   0.04456   0.03700   0.0213  0.0771  1.0000  -4.0385   0.0000   0.2176
  10.000   0.9651   0.04564   0.03816   0.0219  0.0765  1.0000  -4.0630   0.0000   0.2169
  10.100   0.9679   0.04680   0.03943   0.0226  0.0760  1.0000  -4.0814   0.0000   0.2161
  10.200   0.9701   0.04804   0.04076   0.0233  0.0755  1.0000  -4.0964   0.0000   0.2154
  10.300   0.9715   0.04934   0.04217   0.0240  0.0752  1.0000  -4.1075   0.0000   0.2145
  10.400   0.9721   0.05073   0.04368   0.0248  0.0749  1.0000  -4.1135   0.0000   0.2137
  10.500   0.9715   0.05221   0.04527   0.0256  0.0747  1.0000  -4.1132   0.0000   0.2127
  10.600   0.9698   0.05375   0.04694   0.0264  0.0746  1.0000  -4.1066   0.0000   0.2117
  10.700   0.9675   0.05529   0.04861   0.0272  0.0745  1.0000  -4.0998   0.0000   0.2107
  10.800   0.9649   0.05683   0.05025   0.0280  0.0743  1.0000  -4.0936   0.0000   0.2097
  10.900   0.9618   0.05839   0.05191   0.0287  0.0741  1.0000  -4.0870   0.0000   0.2088
  11.000   0.9579   0.05999   0.05360   0.0294  0.0739  1.0000  -4.0782   0.0000   0.2078
  11.100   0.9530   0.06164   0.05533   0.0301  0.0737  1.0000  -4.0648   0.0000   0.2068
  11.200   0.9462   0.06327   0.05706   0.0309  0.0736  1.0000  -4.0439   0.0000   0.2056
  11.400   0.6664   0.11466   0.10923  -0.0023  0.1243  1.0000  -2.1150   0.0000   0.2420
  11.500   0.6794   0.11429   0.10889  -0.0003  0.1224  1.0000  -2.1981   0.0000   0.2389
  11.600   0.6933   0.11405   0.10867   0.0021  0.1212  1.0000  -2.2844   0.0000   0.2353
  11.700   0.7094   0.11389   0.10855   0.0053  0.1202  1.0000  -2.3850   0.0000   0.2307
  11.800   0.6378   0.13079   0.12527  -0.0109  0.1530  1.0000  -1.8025   0.0000   0.2556
  11.900   0.6313   0.13261   0.12707  -0.0126  0.1503  1.0000  -1.7619   0.0000   0.2584
  12.000   0.6300   0.13429   0.12873  -0.0135  0.1483  1.0000  -1.7468   0.0000   0.2597
  12.100   0.6305   0.13586   0.13030  -0.0140  0.1466  1.0000  -1.7408   0.0000   0.2605
  12.200   0.6323   0.13734   0.13178  -0.0144  0.1450  1.0000  -1.7420   0.0000   0.2609
  12.300   0.6354   0.13875   0.13320  -0.0145  0.1436  1.0000  -1.7497   0.0000   0.2609
  12.400   0.6399   0.14012   0.13458  -0.0144  0.1423  1.0000  -1.7641   0.0000   0.2605
  12.500   0.6458   0.14149   0.13595  -0.0141  0.1412  1.0000  -1.7856   0.0000   0.2597
  12.600   0.6534   0.14291   0.13743  -0.0135  0.1402  1.0000  -1.8164   0.0000   0.2584
  12.700   0.6628   0.14447   0.13901  -0.0125  0.1393  1.0000  -1.8549   0.0000   0.2566
  12.800   0.6754   0.14642   0.14099  -0.0110  0.1385  1.0000  -1.9078   0.0000   0.2539
  12.900   0.6888   0.15013   0.14471  -0.0090  0.1375  1.0000  -1.9602   0.0000   0.2508
  13.000   0.6788   0.15184   0.14639  -0.0115  0.1372  1.0000  -1.8966   0.0000   0.2545
  13.100   0.6644   0.15325   0.14776  -0.0148  0.1366  1.0000  -1.8104   0.0000   0.2597
  13.200   0.6447   0.15420   0.14866  -0.0190  0.1343  1.0000  -1.6991   0.0000   0.2666
  13.300   0.6394   0.15548   0.14992  -0.0206  0.1317  1.0000  -1.6621   0.0000   0.2692
  13.400   0.6393   0.15684   0.15127  -0.0213  0.1294  1.0000  -1.6513   0.0000   0.2702
  13.500   0.6415   0.15813   0.15256  -0.0217  0.1272  1.0000  -1.6535   0.0000   0.2705
  13.600   0.6468   0.15930   0.15374  -0.0215  0.1249  1.0000  -1.6739   0.0000   0.2699
  13.700   0.6648   0.16026   0.15473  -0.0191  0.1218  1.0000  -1.7673   0.0000   0.2654
  13.800   0.1533   0.03654   0.03233   0.0266  0.1542  1.0000  -0.5274   0.0000   0.0942
  13.900   0.1497   0.03671   0.03249   0.0258  0.1508  1.0000  -0.5042   0.0000   0.0962
  14.000   0.1511   0.03728   0.03308   0.0255  0.1477  1.0000  -0.5023   0.0000   0.0995
  14.100   0.1541   0.03794   0.03374   0.0254  0.1454  1.0000  -0.5074   0.0000   0.1031
  14.200   0.1580   0.03866   0.03445   0.0253  0.1433  1.0000  -0.5177   0.0000   0.1068
  14.300   0.1632   0.03948   0.03526   0.0254  0.1416  1.0000  -0.5340   0.0000   0.1104
  14.400   0.1704   0.04049   0.03628   0.0258  0.1400  1.0000  -0.5591   0.0000   0.1141
  14.500   0.1822   0.04211   0.03790   0.0265  0.1386  1.0000  -0.6025   0.0000   0.1183
  14.600   0.1987   0.04493   0.04073   0.0276  0.1375  1.0000  -0.6576   0.0000   0.1234
  14.700   0.1947   0.04536   0.04113   0.0265  0.1373  1.0000  -0.6293   0.0000   0.1263
  14.800   0.1892   0.04554   0.04129   0.0253  0.1369  1.0000  -0.5951   0.0000   0.1291
  14.900   0.1828   0.04544   0.04116   0.0240  0.1360  1.0000  -0.5557   0.0000   0.1324
  15.000   0.1791   0.04553   0.04125   0.0230  0.1338  1.0000  -0.5264   0.0000   0.1362
  15.100   0.1799   0.04613   0.04184   0.0224  0.1314  1.0000  -0.5180   0.0000   0.1399
  15.200   0.1822   0.04689   0.04260   0.0220  0.1293  1.0000  -0.5172   0.0000   0.1434
  15.300   0.1852   0.04771   0.04341   0.0217  0.1275  1.0000  -0.5202   0.0000   0.1467
  15.400   0.1888   0.04857   0.04426   0.0214  0.1259  1.0000  -0.5262   0.0000   0.1497
  15.500   0.1931   0.04948   0.04517   0.0213  0.1244  1.0000  -0.5356   0.0000   0.1525
  15.600   0.1982   0.05050   0.04619   0.0212  0.1230  1.0000  -0.5492   0.0000   0.1551
  15.700   0.2048   0.05174   0.04743   0.0213  0.1219  1.0000  -0.5693   0.0000   0.1573
  15.800   0.2142   0.05351   0.04920   0.0217  0.1208  1.0000  -0.6011   0.0000   0.1590
  15.900   0.2324   0.05727   0.05297   0.0231  0.1196  1.0000  -0.6632   0.0000   0.1598
  16.000   0.2288   0.05766   0.05334   0.0218  0.1194  1.0000  -0.6322   0.0000   0.1639
  16.100   0.2242   0.05775   0.05341   0.0205  0.1190  1.0000  -0.5970   0.0000   0.1682
  16.200   0.2191   0.05755   0.05319   0.0191  0.1182  1.0000  -0.5579   0.0000   0.1728
  16.300   0.2159   0.05753   0.05317   0.0179  0.1162  1.0000  -0.5260   0.0000   0.1773
  16.400   0.2168   0.05815   0.05378   0.0173  0.1133  1.0000  -0.5150   0.0000   0.1807
  16.500   0.2198   0.05899   0.05462   0.0169  0.1105  1.0000  -0.5156   0.0000   0.1833
  16.600   0.2242   0.05994   0.05557   0.0167  0.1079  1.0000  -0.5255   0.0000   0.1851
  16.700   0.2307   0.06114   0.05677   0.0168  0.1057  1.0000  -0.5520   0.0000   0.1861
  16.800   0.2394   0.06289   0.05852   0.0171  0.1043  1.0000  -0.5938   0.0000   0.1866
  16.900   0.2569   0.06677   0.06242   0.0185  0.1030  1.0000  -0.6775   0.0000   0.1850
  17.000   0.2596   0.06840   0.06403   0.0179  0.1027  1.0000  -0.6763   0.0000   0.1878
  17.100   0.2570   0.06880   0.06441   0.0166  0.1025  1.0000  -0.6489   0.0000   0.1920
  17.200   0.2540   0.06893   0.06453   0.0154  0.1021  1.0000  -0.6185   0.0000   0.1963
  17.300   0.2506   0.06887   0.06446   0.0141  0.1014  1.0000  -0.5857   0.0000   0.2008
  17.400   0.2490   0.06907   0.06465   0.0130  0.0999  1.0000  -0.5614   0.0000   0.2049
  17.500   0.2502   0.06982   0.06540   0.0123  0.0981  1.0000  -0.5540   0.0000   0.2080
  17.600   0.2526   0.07078   0.06636   0.0118  0.0965  1.0000  -0.5546   0.0000   0.2105
  17.700   0.2556   0.07182   0.06740   0.0113  0.0950  1.0000  -0.5590   0.0000   0.2127
  17.800   0.2588   0.07291   0.06852   0.0108  0.0936  1.0000  -0.5640   0.0000   0.2146
  17.900   0.2625   0.07404   0.06964   0.0104  0.0923  1.0000  -0.5731   0.0000   0.2164
  18.000   0.2664   0.07522   0.07082   0.0101  0.0912  1.0000  -0.5851   0.0000   0.2180
  18.100   0.2709   0.07649   0.07209   0.0098  0.0902  1.0000  -0.6008   0.0000   0.2192
  18.200   0.2761   0.07794   0.07354   0.0096  0.0893  1.0000  -0.6214   0.0000   0.2202
  18.300   0.2826   0.07976   0.07536   0.0096  0.0885  1.0000  -0.6497   0.0000   0.2206
  18.400   0.2920   0.08245   0.07806   0.0099  0.0877  1.0000  -0.6933   0.0000   0.2200
  18.500   0.3055   0.08687   0.08248   0.0107  0.0871  1.0000  -0.7543   0.0000   0.2180
  18.600   0.3048   0.08753   0.08313   0.0096  0.0870  1.0000  -0.7334   0.0000   0.2216
  18.700   0.3037   0.08803   0.08361   0.0085  0.0868  1.0000  -0.7108   0.0000   0.2251
  18.800   0.3024   0.08833   0.08390   0.0073  0.0866  1.0000  -0.6865   0.0000   0.2288
  18.900   0.3009   0.08847   0.08404   0.0062  0.0862  1.0000  -0.6606   0.0000   0.2325
  19.000   0.2997   0.08862   0.08418   0.0051  0.0855  1.0000  -0.6358   0.0000   0.2360
  19.100   0.3000   0.08912   0.08468   0.0042  0.0845  1.0000  -0.6192   0.0000   0.2390
  19.200   0.3017   0.09001   0.08558   0.0035  0.0832  1.0000  -0.6122   0.0000   0.2413
  19.300   0.3041   0.09110   0.08666   0.0029  0.0820  1.0000  -0.6104   0.0000   0.2433
  19.400   0.3069   0.09227   0.08783   0.0023  0.0809  1.0000  -0.6112   0.0000   0.2450
  19.500   0.3099   0.09348   0.08904   0.0018  0.0798  1.0000  -0.6136   0.0000   0.2466
  19.600   0.3131   0.09472   0.09028   0.0013  0.0788  1.0000  -0.6174   0.0000   0.2481
  19.700   0.3164   0.09599   0.09156   0.0008  0.0778  1.0000  -0.6225   0.0000   0.2494
  19.800   0.3200   0.09730   0.09287   0.0003  0.0769  1.0000  -0.6291   0.0000   0.2506
  19.900   0.3238   0.09867   0.09424  -0.0001  0.0761  1.0000  -0.6377   0.0000   0.2517
  20.000   0.3279   0.10015   0.09572  -0.0005  0.0753  1.0000  -0.6490   0.0000   0.2525


