xflr5 v6.32

 Calculated polar for: NACA 0012

 1 1 Reynolds number fixed          Mach number fixed         

 xtrf =   1.000 (top)        1.000 (bottom)
 Mach =   0.000     Re =    15.000 e 6     Ncrit =   9.000

  alpha     CL        CD       CDp       Cm    Top Xtr Bot Xtr   Cpmin    Chinge    XCp    
 ------- -------- --------- --------- -------- ------- ------- -------- --------- ---------
 -15.000  -1.6343   0.01308   0.00899  -0.0046  1.0000  0.0068  -11.9248   0.0000   0.2281
 -14.900  -1.6250   0.01296   0.00887  -0.0044  1.0000  0.0068  -11.7852   0.0000   0.2284
 -14.800  -1.6156   0.01284   0.00875  -0.0041  1.0000  0.0068  -11.6460   0.0000   0.2287
 -14.700  -1.6061   0.01272   0.00862  -0.0039  1.0000  0.0068  -11.5072   0.0000   0.2290
 -14.600  -1.5966   0.01260   0.00850  -0.0037  1.0000  0.0068  -11.3689   0.0000   0.2293
 -14.500  -1.5871   0.01248   0.00839  -0.0035  1.0000  0.0068  -11.2309   0.0000   0.2296
 -14.400  -1.5775   0.01237   0.00827  -0.0033  1.0000  0.0068  -11.0935   0.0000   0.2299
 -14.300  -1.5679   0.01226   0.00816  -0.0032  1.0000  0.0068  -10.9565   0.0000   0.2302
 -14.200  -1.5582   0.01214   0.00804  -0.0030  1.0000  0.0068  -10.8200   0.0000   0.2305
 -14.100  -1.5485   0.01203   0.00793  -0.0028  1.0000  0.0068  -10.6840   0.0000   0.2308
 -14.000  -1.5388   0.01192   0.00782  -0.0026  1.0000  0.0068  -10.5485   0.0000   0.2310
 -13.900  -1.5290   0.01182   0.00771  -0.0025  1.0000  0.0068  -10.4138   0.0000   0.2313
 -13.800  -1.5192   0.01171   0.00760  -0.0023  1.0000  0.0068  -10.2793   0.0000   0.2316
 -13.700  -1.5094   0.01160   0.00749  -0.0021  1.0000  0.0068  -10.1454   0.0000   0.2319
 -13.600  -1.4996   0.01150   0.00739  -0.0020  1.0000  0.0068  -10.0121   0.0000   0.2322
 -13.500  -1.4897   0.01139   0.00728  -0.0018  1.0000  0.0068  -9.8794   0.0000   0.2324
 -13.400  -1.4798   0.01129   0.00718  -0.0016  1.0000  0.0068  -9.7473   0.0000   0.2327
 -13.300  -1.4698   0.01119   0.00708  -0.0015  1.0000  0.0068  -9.6158   0.0000   0.2330
 -13.200  -1.4599   0.01109   0.00698  -0.0013  1.0000  0.0068  -9.4849   0.0000   0.2332
 -13.100  -1.4499   0.01099   0.00688  -0.0012  1.0000  0.0068  -9.3547   0.0000   0.2335
 -13.000  -1.4399   0.01089   0.00678  -0.0010  1.0000  0.0069  -9.2251   0.0000   0.2338
 -12.900  -1.4299   0.01080   0.00669  -0.0009  1.0000  0.0069  -9.0963   0.0000   0.2340
 -12.800  -1.4199   0.01070   0.00659  -0.0007  1.0000  0.0069  -8.9682   0.0000   0.2343
 -12.700  -1.4099   0.01061   0.00650  -0.0006  1.0000  0.0069  -8.8408   0.0000   0.2346
 -12.600  -1.3999   0.01052   0.00641  -0.0004  1.0000  0.0069  -8.7143   0.0000   0.2349
 -12.500  -1.3899   0.01042   0.00631  -0.0002  1.0000  0.0069  -8.5886   0.0000   0.2351
 -12.400  -1.3799   0.01033   0.00622  -0.0001  1.0000  0.0069  -8.4638   0.0000   0.2354
 -12.300  -1.3701   0.01024   0.00613   0.0002  1.0000  0.0071  -8.3415   0.0000   0.2357
 -12.200  -1.3604   0.01014   0.00603   0.0004  1.0000  0.0074  -8.2204   0.0000   0.2361
 -12.100  -1.3508   0.01004   0.00594   0.0006  1.0000  0.0078  -8.1004   0.0000   0.2364
 -12.000  -1.3414   0.00995   0.00585   0.0010  1.0000  0.0081  -7.9931   0.0000   0.2368
 -11.900  -1.3302   0.00985   0.00575   0.0009  0.9998  0.0085  -7.8816   0.0000   0.2369
 -11.800  -1.3189   0.00974   0.00565   0.0008  0.9996  0.0088  -7.7700   0.0000   0.2370
 -11.700  -1.3076   0.00964   0.00555   0.0006  0.9993  0.0091  -7.6589   0.0000   0.2371
 -11.600  -1.2964   0.00953   0.00545   0.0005  0.9989  0.0095  -7.5484   0.0000   0.2371
 -11.500  -1.2851   0.00942   0.00535   0.0004  0.9985  0.0098  -7.4386   0.0000   0.2372
 -11.400  -1.2738   0.00930   0.00524   0.0003  0.9981  0.0101  -7.3292   0.0000   0.2372
 -11.300  -1.2624   0.00919   0.00514   0.0002  0.9975  0.0105  -7.2203   0.0000   0.2373
 -11.200  -1.2510   0.00908   0.00503   0.0000  0.9968  0.0108  -7.1115   0.0000   0.2373
 -11.100  -1.2395   0.00897   0.00493  -0.0001  0.9961  0.0111  -7.0027   0.0000   0.2374
 -11.000  -1.2279   0.00887   0.00484  -0.0003  0.9954  0.0113  -6.8938   0.0000   0.2374
 -10.900  -1.2161   0.00878   0.00476  -0.0005  0.9947  0.0115  -6.7849   0.0000   0.2373
 -10.800  -1.2043   0.00870   0.00468  -0.0007  0.9939  0.0116  -6.6764   0.0000   0.2373
 -10.700  -1.1924   0.00862   0.00460  -0.0009  0.9930  0.0117  -6.5684   0.0000   0.2372
 -10.600  -1.1816   0.00854   0.00453  -0.0009  0.9920  0.0118  -6.4663   0.0000   0.2374
 -10.500  -1.1711   0.00847   0.00446  -0.0008  0.9907  0.0118  -6.3657   0.0000   0.2376
 -10.400  -1.1606   0.00840   0.00439  -0.0007  0.9889  0.0119  -6.2659   0.0000   0.2379
 -10.300  -1.1500   0.00834   0.00432  -0.0006  0.9867  0.0119  -6.1667   0.0000   0.2381
 -10.200  -1.1395   0.00827   0.00426  -0.0005  0.9841  0.0119  -6.0684   0.0000   0.2383
 -10.100  -1.1291   0.00821   0.00419  -0.0003  0.9809  0.0120  -5.9712   0.0000   0.2386
 -10.000  -1.1184   0.00814   0.00413  -0.0002  0.9791  0.0120  -5.8735   0.0000   0.2388
  -9.900  -1.1077   0.00808   0.00406  -0.0002  0.9774  0.0120  -5.7763   0.0000   0.2390
  -9.800  -1.0971   0.00802   0.00400  -0.0001  0.9749  0.0120  -5.6803   0.0000   0.2392
  -9.700  -1.0867   0.00796   0.00394   0.0001  0.9714  0.0121  -5.5856   0.0000   0.2394
  -9.600  -1.0764   0.00791   0.00388   0.0003  0.9670  0.0121  -5.4924   0.0000   0.2397
  -9.500  -1.0658   0.00785   0.00382   0.0004  0.9632  0.0121  -5.3984   0.0000   0.2400
  -9.400  -1.0549   0.00779   0.00376   0.0004  0.9614  0.0121  -5.3038   0.0000   0.2401
  -9.300  -1.0441   0.00773   0.00370   0.0005  0.9587  0.0121  -5.2102   0.0000   0.2403
  -9.200  -1.0335   0.00768   0.00364   0.0006  0.9545  0.0121  -5.1178   0.0000   0.2406
  -9.100  -1.0230   0.00763   0.00358   0.0007  0.9489  0.0125  -5.0273   0.0000   0.2408
  -9.000  -1.0123   0.00757   0.00352   0.0008  0.9441  0.0131  -4.9368   0.0000   0.2410
  -8.900  -1.0014   0.00750   0.00345   0.0008  0.9419  0.0139  -4.8461   0.0000   0.2412
  -8.800  -0.9905   0.00744   0.00339   0.0009  0.9381  0.0146  -4.7565   0.0000   0.2414
  -8.700  -0.9798   0.00739   0.00333   0.0010  0.9323  0.0150  -4.6683   0.0000   0.2416
  -8.600  -0.9693   0.00733   0.00325   0.0011  0.9248  0.0158  -4.5809   0.0000   0.2419
  -8.500  -0.9585   0.00724   0.00318   0.0012  0.9218  0.0166  -4.4933   0.0000   0.2421
  -8.400  -0.9477   0.00716   0.00310   0.0012  0.9181  0.0173  -4.4063   0.0000   0.2422
  -8.300  -0.9370   0.00710   0.00304   0.0013  0.9119  0.0178  -4.3198   0.0000   0.2425
  -8.200  -0.9262   0.00706   0.00298   0.0014  0.9035  0.0182  -4.2337   0.0000   0.2427
  -8.100  -0.9151   0.00701   0.00292   0.0014  0.8992  0.0184  -4.1472   0.0000   0.2428
  -8.000  -0.9040   0.00696   0.00287   0.0014  0.8950  0.0185  -4.0613   0.0000   0.2429
  -7.900  -0.8930   0.00693   0.00282   0.0015  0.8878  0.0186  -3.9765   0.0000   0.2431
  -7.800  -0.8820   0.00690   0.00278   0.0015  0.8786  0.0187  -3.8923   0.0000   0.2433
  -7.700  -0.8708   0.00685   0.00273   0.0015  0.8745  0.0187  -3.8082   0.0000   0.2434
  -7.600  -0.8597   0.00681   0.00268   0.0015  0.8694  0.0188  -3.7248   0.0000   0.2435
  -7.500  -0.8487   0.00679   0.00264   0.0015  0.8605  0.0188  -3.6426   0.0000   0.2437
  -7.400  -0.8375   0.00676   0.00259   0.0015  0.8510  0.0193  -3.5609   0.0000   0.2438
  -7.300  -0.8263   0.00671   0.00254   0.0015  0.8477  0.0201  -3.4796   0.0000   0.2440
  -7.200  -0.8152   0.00667   0.00249   0.0016  0.8412  0.0210  -3.3994   0.0000   0.2441
  -7.100  -0.8042   0.00664   0.00245   0.0016  0.8307  0.0220  -3.3201   0.0000   0.2443
  -7.000  -0.7931   0.00660   0.00239   0.0016  0.8235  0.0229  -3.2405   0.0000   0.2444
  -6.900  -0.7820   0.00654   0.00234   0.0016  0.8184  0.0238  -3.1627   0.0000   0.2445
  -6.800  -0.7710   0.00650   0.00228   0.0016  0.8094  0.0248  -3.0859   0.0000   0.2447
  -6.700  -0.7599   0.00646   0.00223   0.0017  0.7984  0.0256  -3.0183   0.0000   0.2448
  -6.600  -0.7487   0.00641   0.00218   0.0017  0.7947  0.0262  -2.9529   0.0000   0.2449
  -6.500  -0.7375   0.00638   0.00214   0.0016  0.7881  0.0265  -2.8881   0.0000   0.2451
  -6.400  -0.7263   0.00637   0.00210   0.0017  0.7763  0.0267  -2.8240   0.0000   0.2452
  -6.300  -0.7150   0.00634   0.00206   0.0016  0.7685  0.0268  -2.7599   0.0000   0.2453
  -6.200  -0.7037   0.00631   0.00203   0.0016  0.7634  0.0271  -2.6964   0.0000   0.2454
  -6.100  -0.6925   0.00629   0.00199   0.0016  0.7547  0.0283  -2.6338   0.0000   0.2455
  -6.000  -0.6812   0.00627   0.00195   0.0016  0.7430  0.0298  -2.5717   0.0000   0.2456
  -5.900  -0.6700   0.00622   0.00191   0.0016  0.7387  0.0313  -2.5100   0.0000   0.2457
  -5.800  -0.6588   0.00618   0.00187   0.0016  0.7319  0.0328  -2.4492   0.0000   0.2458
  -5.700  -0.6477   0.00615   0.00182   0.0016  0.7198  0.0342  -2.3893   0.0000   0.2460
  -5.600  -0.6365   0.00611   0.00177   0.0016  0.7117  0.0355  -2.3292   0.0000   0.2461
  -5.500  -0.6251   0.00607   0.00174   0.0016  0.7075  0.0362  -2.2691   0.0000   0.2461
  -5.400  -0.6139   0.00605   0.00171   0.0016  0.6993  0.0374  -2.2097   0.0000   0.2462
  -5.300  -0.6026   0.00604   0.00167   0.0015  0.6868  0.0393  -2.1504   0.0000   0.2463
  -5.200  -0.5913   0.00600   0.00163   0.0015  0.6814  0.0414  -2.0923   0.0000   0.2464
  -5.100  -0.5800   0.00596   0.00159   0.0015  0.6756  0.0435  -2.0350   0.0000   0.2465
  -5.000  -0.5689   0.00593   0.00155   0.0015  0.6650  0.0453  -1.9784   0.0000   0.2467
  -4.900  -0.5576   0.00591   0.00151   0.0015  0.6543  0.0464  -1.9218   0.0000   0.2467
  -4.800  -0.5461   0.00588   0.00149   0.0015  0.6511  0.0469  -1.8652   0.0000   0.2468
  -4.700  -0.5347   0.00586   0.00146   0.0014  0.6441  0.0478  -1.8094   0.0000   0.2469
  -4.600  -0.5235   0.00586   0.00143   0.0014  0.6320  0.0507  -1.7555   0.0000   0.2470
  -4.500  -0.5121   0.00582   0.00140   0.0014  0.6239  0.0535  -1.7092   0.0000   0.2470
  -4.400  -0.5008   0.00577   0.00136   0.0014  0.6199  0.0562  -1.6634   0.0000   0.2471
  -4.300  -0.4896   0.00575   0.00133   0.0014  0.6122  0.0581  -1.6179   0.0000   0.2472
  -4.200  -0.4782   0.00575   0.00131   0.0013  0.6006  0.0589  -1.5726   0.0000   0.2473
  -4.100  -0.4667   0.00573   0.00128   0.0013  0.5941  0.0604  -1.5273   0.0000   0.2473
  -4.000  -0.4553   0.00570   0.00125   0.0013  0.5891  0.0642  -1.4827   0.0000   0.2474
  -3.900  -0.4441   0.00567   0.00122   0.0013  0.5800  0.0677  -1.4390   0.0000   0.2475
  -3.800  -0.4329   0.00564   0.00119   0.0012  0.5686  0.0714  -1.3957   0.0000   0.2476
  -3.700  -0.4214   0.00561   0.00116   0.0012  0.5643  0.0745  -1.3520   0.0000   0.2476
  -3.600  -0.4102   0.00556   0.00113   0.0012  0.5594  0.0811  -1.3091   0.0000   0.2477
  -3.500  -0.3989   0.00554   0.00110   0.0012  0.5496  0.0846  -1.2665   0.0000   0.2478
  -3.400  -0.3875   0.00553   0.00108   0.0012  0.5377  0.0864  -1.2242   0.0000   0.2479
  -3.300  -0.3760   0.00551   0.00106   0.0011  0.5344  0.0880  -1.1879   0.0000   0.2479
  -3.200  -0.3646   0.00549   0.00103   0.0011  0.5294  0.0933  -1.1523   0.0000   0.2479
  -3.100  -0.3534   0.00547   0.00101   0.0011  0.5196  0.0981  -1.1174   0.0000   0.2480
  -3.000  -0.3420   0.00545   0.00099   0.0010  0.5082  0.1014  -1.0824   0.0000   0.2481
  -2.900  -0.3304   0.00543   0.00097   0.0010  0.5050  0.1027  -1.0472   0.0000   0.2481
  -2.800  -0.3190   0.00541   0.00095   0.0009  0.4989  0.1097  -1.0128   0.0000   0.2481
  -2.700  -0.3080   0.00537   0.00092   0.0010  0.4893  0.1175  -0.9792   0.0000   0.2483
  -2.600  -0.2965   0.00536   0.00090   0.0009  0.4789  0.1206  -0.9457   0.0000   0.2483
  -2.500  -0.2851   0.00532   0.00088   0.0009  0.4761  0.1290  -0.9165   0.0000   0.2483
  -2.300  -0.2624   0.00530   0.00085   0.0008  0.4587  0.1368  -0.8589   0.0000   0.2485
  -2.200  -0.2509   0.00529   0.00083   0.0008  0.4501  0.1400  -0.8300   0.0000   0.2484
  -2.100  -0.2395   0.00524   0.00081   0.0008  0.4472  0.1503  -0.8019   0.0000   0.2485
  -2.000  -0.2282   0.00522   0.00079   0.0007  0.4401  0.1560  -0.7762   0.0000   0.2486
  -1.900  -0.2169   0.00522   0.00078   0.0007  0.4288  0.1635  -0.7517   0.0000   0.2487
  -1.800  -0.2055   0.00518   0.00076   0.0007  0.4216  0.1709  -0.7273   0.0000   0.2487
  -1.700  -0.1940   0.00516   0.00074   0.0006  0.4183  0.1750  -0.7030   0.0000   0.2487
  -1.600  -0.1825   0.00518   0.00074   0.0006  0.4104  0.1765  -0.6798   0.0000   0.2487
  -1.500  -0.1711   0.00518   0.00073   0.0005  0.3988  0.1849  -0.6586   0.0000   0.2487
  -1.400  -0.1598   0.00513   0.00071   0.0005  0.3935  0.1947  -0.6377   0.0000   0.2489
  -1.200  -0.1370   0.00511   0.00069   0.0005  0.3805  0.2094  -0.5977   0.0000   0.2489
  -1.000  -0.1141   0.00509   0.00067   0.0004  0.3656  0.2185  -0.5605   0.0000   0.2488
  -0.900  -0.1026   0.00509   0.00067   0.0003  0.3596  0.2251  -0.5433   0.0000   0.2488
  -0.800  -0.0915   0.00507   0.00066   0.0003  0.3498  0.2368  -0.5270   0.0000   0.2491
  -0.700  -0.0800   0.00506   0.00065   0.0003  0.3410  0.2415  -0.5105   0.0000   0.2490
  -0.600  -0.0684   0.00506   0.00065   0.0002  0.3376  0.2477  -0.4951   0.0000   0.2488
  -0.500  -0.0571   0.00506   0.00065   0.0002  0.3290  0.2560  -0.4804   0.0000   0.2490
  -0.400  -0.0458   0.00505   0.00064   0.0002  0.3180  0.2634  -0.4658   0.0000   0.2493
  -0.300  -0.0342   0.00505   0.00064   0.0001  0.3141  0.2674  -0.4519   0.0000   0.2487
  -0.200  -0.0228   0.00503   0.00064   0.0001  0.3092  0.2794  -0.4386   0.0000   0.2487
  -0.100  -0.0116   0.00504   0.00064   0.0001  0.2980  0.2867  -0.4255   0.0000   0.2506
   0.000  -0.0000   0.00505   0.00063   0.0000  0.2897  0.2897  -0.4129   0.0000   0.4063
   0.100   0.0116   0.00504   0.00064  -0.0001  0.2867  0.2981  -0.4255   0.0000   0.2506
   0.200   0.0228   0.00503   0.00064  -0.0001  0.2794  0.3092  -0.4386   0.0000   0.2487
   0.300   0.0342   0.00505   0.00064  -0.0001  0.2674  0.3141  -0.4519   0.0000   0.2487
   0.400   0.0458   0.00505   0.00064  -0.0002  0.2634  0.3180  -0.4658   0.0000   0.2493
   0.500   0.0571   0.00506   0.00065  -0.0002  0.2560  0.3290  -0.4804   0.0000   0.2490
   0.600   0.0684   0.00506   0.00065  -0.0002  0.2477  0.3376  -0.4951   0.0000   0.2488
   0.700   0.0800   0.00506   0.00065  -0.0003  0.2415  0.3410  -0.5105   0.0000   0.2491
   0.800   0.0915   0.00507   0.00066  -0.0003  0.2368  0.3498  -0.5270   0.0000   0.2491
   0.900   0.1026   0.00509   0.00067  -0.0003  0.2250  0.3596  -0.5433   0.0000   0.2488
   1.000   0.1141   0.00509   0.00067  -0.0004  0.2185  0.3656  -0.5605   0.0000   0.2489
   1.100   0.1257   0.00510   0.00068  -0.0004  0.2157  0.3690  -0.5792   0.0000   0.2490
   1.200   0.1370   0.00511   0.00069  -0.0005  0.2094  0.3805  -0.5977   0.0000   0.2489
   1.400   0.1598   0.00513   0.00071  -0.0005  0.1947  0.3935  -0.6377   0.0000   0.2489
   1.500   0.1711   0.00518   0.00073  -0.0005  0.1849  0.3989  -0.6586   0.0000   0.2487
   1.600   0.1825   0.00518   0.00074  -0.0006  0.1765  0.4104  -0.6798   0.0000   0.2487
   1.700   0.1940   0.00516   0.00074  -0.0006  0.1750  0.4183  -0.7030   0.0000   0.2487
   1.800   0.2055   0.00518   0.00076  -0.0007  0.1709  0.4216  -0.7274   0.0000   0.2487
   1.900   0.2169   0.00522   0.00078  -0.0007  0.1635  0.4288  -0.7517   0.0000   0.2487
   2.000   0.2282   0.00522   0.00079  -0.0007  0.1560  0.4401  -0.7762   0.0000   0.2486
   2.100   0.2395   0.00524   0.00081  -0.0008  0.1503  0.4472  -0.8019   0.0000   0.2485
   2.200   0.2509   0.00529   0.00083  -0.0008  0.1400  0.4501  -0.8300   0.0000   0.2484
   2.300   0.2624   0.00530   0.00085  -0.0008  0.1368  0.4588  -0.8589   0.0000   0.2485
   2.400   0.2738   0.00529   0.00086  -0.0009  0.1345  0.4694  -0.8877   0.0000   0.2484
   2.500   0.2851   0.00532   0.00088  -0.0009  0.1290  0.4761  -0.9165   0.0000   0.2484
   2.600   0.2965   0.00536   0.00090  -0.0009  0.1206  0.4789  -0.9457   0.0000   0.2483
   2.700   0.3080   0.00537   0.00092  -0.0010  0.1175  0.4893  -0.9792   0.0000   0.2483
   2.800   0.3191   0.00541   0.00095  -0.0009  0.1097  0.4989  -1.0128   0.0000   0.2481
   2.900   0.3305   0.00543   0.00097  -0.0010  0.1027  0.5050  -1.0472   0.0000   0.2481
   3.000   0.3420   0.00545   0.00099  -0.0010  0.1014  0.5081  -1.0824   0.0000   0.2481
   3.100   0.3534   0.00547   0.00101  -0.0011  0.0981  0.5196  -1.1174   0.0000   0.2480
   3.200   0.3646   0.00549   0.00103  -0.0011  0.0933  0.5294  -1.1523   0.0000   0.2479
   3.300   0.3760   0.00551   0.00106  -0.0011  0.0880  0.5344  -1.1880   0.0000   0.2479
   3.400   0.3876   0.00553   0.00108  -0.0012  0.0864  0.5377  -1.2242   0.0000   0.2479
   3.500   0.3990   0.00554   0.00110  -0.0012  0.0846  0.5497  -1.2665   0.0000   0.2478
   3.600   0.4102   0.00556   0.00113  -0.0012  0.0811  0.5594  -1.3091   0.0000   0.2477
   3.700   0.4214   0.00561   0.00116  -0.0012  0.0745  0.5643  -1.3520   0.0000   0.2476
   3.800   0.4329   0.00564   0.00119  -0.0013  0.0714  0.5687  -1.3957   0.0000   0.2476
   3.900   0.4441   0.00567   0.00122  -0.0013  0.0677  0.5800  -1.4391   0.0000   0.2475
   4.000   0.4553   0.00570   0.00125  -0.0013  0.0642  0.5891  -1.4828   0.0000   0.2474
   4.100   0.4667   0.00573   0.00128  -0.0013  0.0604  0.5941  -1.5274   0.0000   0.2473
   4.200   0.4782   0.00575   0.00131  -0.0013  0.0589  0.6007  -1.5726   0.0000   0.2473
   4.300   0.4896   0.00575   0.00133  -0.0014  0.0581  0.6122  -1.6180   0.0000   0.2472
   4.400   0.5009   0.00577   0.00136  -0.0014  0.0562  0.6200  -1.6635   0.0000   0.2471
   4.500   0.5122   0.00582   0.00140  -0.0014  0.0535  0.6239  -1.7092   0.0000   0.2470
   4.600   0.5235   0.00586   0.00143  -0.0014  0.0507  0.6321  -1.7555   0.0000   0.2470
   4.700   0.5348   0.00586   0.00146  -0.0014  0.0478  0.6441  -1.8095   0.0000   0.2469
   4.800   0.5462   0.00588   0.00149  -0.0015  0.0469  0.6511  -1.8653   0.0000   0.2468
   4.900   0.5576   0.00591   0.00151  -0.0015  0.0464  0.6543  -1.9218   0.0000   0.2468
   5.000   0.5689   0.00593   0.00155  -0.0015  0.0453  0.6650  -1.9785   0.0000   0.2467
   5.100   0.5801   0.00596   0.00159  -0.0015  0.0434  0.6756  -2.0350   0.0000   0.2465
   5.200   0.5913   0.00600   0.00163  -0.0015  0.0414  0.6814  -2.0923   0.0000   0.2464
   5.300   0.6026   0.00604   0.00167  -0.0016  0.0393  0.6868  -2.1505   0.0000   0.2464
   5.400   0.6139   0.00605   0.00171  -0.0016  0.0374  0.6993  -2.2098   0.0000   0.2463
   5.500   0.6252   0.00607   0.00174  -0.0016  0.0362  0.7075  -2.2692   0.0000   0.2462
   5.600   0.6365   0.00611   0.00177  -0.0016  0.0355  0.7117  -2.3293   0.0000   0.2461
   5.700   0.6478   0.00615   0.00182  -0.0016  0.0342  0.7198  -2.3894   0.0000   0.2460
   5.800   0.6588   0.00618   0.00187  -0.0016  0.0327  0.7319  -2.4494   0.0000   0.2458
   5.900   0.6700   0.00622   0.00191  -0.0016  0.0313  0.7387  -2.5101   0.0000   0.2457
   6.000   0.6813   0.00627   0.00195  -0.0016  0.0298  0.7430  -2.5718   0.0000   0.2456
   6.100   0.6925   0.00629   0.00199  -0.0016  0.0283  0.7547  -2.6339   0.0000   0.2455
   6.200   0.7037   0.00631   0.00203  -0.0016  0.0271  0.7634  -2.6965   0.0000   0.2454
   6.300   0.7151   0.00634   0.00206  -0.0016  0.0268  0.7685  -2.7600   0.0000   0.2453
   6.400   0.7264   0.00637   0.00210  -0.0017  0.0267  0.7763  -2.8241   0.0000   0.2452
   6.500   0.7375   0.00638   0.00214  -0.0017  0.0265  0.7881  -2.8882   0.0000   0.2451
   6.600   0.7488   0.00641   0.00218  -0.0017  0.0262  0.7947  -2.9531   0.0000   0.2450
   6.700   0.7600   0.00646   0.00223  -0.0017  0.0256  0.7983  -3.0185   0.0000   0.2449
   6.800   0.7711   0.00650   0.00228  -0.0017  0.0248  0.8094  -3.0861   0.0000   0.2447
   6.900   0.7820   0.00654   0.00234  -0.0016  0.0238  0.8184  -3.1629   0.0000   0.2445
   7.000   0.7931   0.00660   0.00239  -0.0016  0.0229  0.8235  -3.2407   0.0000   0.2444
   7.100   0.8043   0.00664   0.00245  -0.0016  0.0220  0.8307  -3.3203   0.0000   0.2443
   7.200   0.8153   0.00667   0.00249  -0.0016  0.0210  0.8412  -3.3996   0.0000   0.2441
   7.300   0.8264   0.00671   0.00254  -0.0016  0.0201  0.8476  -3.4799   0.0000   0.2440
   7.400   0.8376   0.00676   0.00259  -0.0016  0.0193  0.8510  -3.5612   0.0000   0.2439
   7.500   0.8487   0.00679   0.00264  -0.0016  0.0188  0.8605  -3.6429   0.0000   0.2437
   7.600   0.8598   0.00681   0.00268  -0.0015  0.0188  0.8694  -3.7251   0.0000   0.2436
   7.700   0.8709   0.00685   0.00273  -0.0015  0.0187  0.8745  -3.8085   0.0000   0.2434
   7.800   0.8821   0.00690   0.00278  -0.0015  0.0187  0.8787  -3.8926   0.0000   0.2433
   7.900   0.8931   0.00693   0.00282  -0.0015  0.0186  0.8878  -3.9768   0.0000   0.2431
   8.000   0.9041   0.00696   0.00287  -0.0014  0.0185  0.8950  -4.0617   0.0000   0.2430
   8.100   0.9152   0.00701   0.00292  -0.0014  0.0184  0.8991  -4.1476   0.0000   0.2428
   8.200   0.9263   0.00706   0.00298  -0.0014  0.0182  0.9036  -4.2341   0.0000   0.2427
   8.300   0.9371   0.00710   0.00304  -0.0013  0.0178  0.9119  -4.3202   0.0000   0.2425
   8.400   0.9478   0.00716   0.00310  -0.0013  0.0173  0.9181  -4.4066   0.0000   0.2423
   8.500   0.9586   0.00724   0.00318  -0.0012  0.0166  0.9218  -4.4937   0.0000   0.2421
   8.600   0.9694   0.00733   0.00325  -0.0011  0.0158  0.9248  -4.5813   0.0000   0.2419
   8.700   0.9799   0.00739   0.00333  -0.0010  0.0150  0.9323  -4.6687   0.0000   0.2416
   8.800   0.9906   0.00744   0.00339  -0.0009  0.0146  0.9381  -4.7569   0.0000   0.2414
   8.900   1.0015   0.00750   0.00345  -0.0009  0.0139  0.9419  -4.8465   0.0000   0.2412
   9.000   1.0124   0.00757   0.00352  -0.0008  0.0131  0.9441  -4.9372   0.0000   0.2411
   9.100   1.0231   0.00763   0.00358  -0.0007  0.0125  0.9489  -5.0278   0.0000   0.2409
   9.200   1.0336   0.00768   0.00364  -0.0006  0.0121  0.9544  -5.1183   0.0000   0.2406
   9.300   1.0442   0.00773   0.00370  -0.0005  0.0121  0.9587  -5.2107   0.0000   0.2404
   9.400   1.0551   0.00779   0.00376  -0.0004  0.0121  0.9614  -5.3043   0.0000   0.2402
   9.500   1.0660   0.00785   0.00382  -0.0004  0.0121  0.9631  -5.3990   0.0000   0.2400
   9.600   1.0765   0.00791   0.00388  -0.0003  0.0121  0.9669  -5.4930   0.0000   0.2398
   9.700   1.0868   0.00796   0.00394  -0.0001  0.0121  0.9714  -5.5862   0.0000   0.2395
   9.800   1.0972   0.00802   0.00400   0.0000  0.0120  0.9748  -5.6809   0.0000   0.2392
   9.900   1.1078   0.00808   0.00407   0.0001  0.0120  0.9774  -5.7769   0.0000   0.2390
  10.000   1.1185   0.00814   0.00413   0.0002  0.0120  0.9790  -5.8741   0.0000   0.2388
  10.100   1.1292   0.00821   0.00419   0.0003  0.0120  0.9808  -5.9719   0.0000   0.2386
  10.200   1.1396   0.00827   0.00426   0.0004  0.0119  0.9840  -6.0690   0.0000   0.2383
  10.300   1.1502   0.00834   0.00432   0.0005  0.0119  0.9867  -6.1674   0.0000   0.2381
  10.400   1.1607   0.00840   0.00439   0.0006  0.0119  0.9889  -6.2666   0.0000   0.2379
  10.500   1.1713   0.00847   0.00446   0.0007  0.0118  0.9907  -6.3664   0.0000   0.2377
  10.600   1.1818   0.00854   0.00453   0.0009  0.0118  0.9920  -6.4670   0.0000   0.2375
  10.700   1.1925   0.00862   0.00460   0.0009  0.0117  0.9930  -6.5690   0.0000   0.2373
  10.800   1.2044   0.00870   0.00468   0.0007  0.0116  0.9939  -6.6771   0.0000   0.2373
  10.900   1.2163   0.00878   0.00476   0.0005  0.0115  0.9947  -6.7856   0.0000   0.2374
  11.000   1.2280   0.00887   0.00484   0.0003  0.0113  0.9954  -6.8945   0.0000   0.2374
  11.100   1.2397   0.00897   0.00493   0.0001  0.0111  0.9961  -7.0034   0.0000   0.2374
  11.200   1.2512   0.00908   0.00503  -0.0001  0.0108  0.9968  -7.1122   0.0000   0.2374
  11.300   1.2626   0.00919   0.00514  -0.0002  0.0104  0.9975  -7.2211   0.0000   0.2373
  11.400   1.2739   0.00930   0.00524  -0.0003  0.0101  0.9981  -7.3300   0.0000   0.2373
  11.500   1.2852   0.00942   0.00535  -0.0004  0.0098  0.9986  -7.4394   0.0000   0.2372
  11.600   1.2965   0.00953   0.00545  -0.0006  0.0095  0.9990  -7.5493   0.0000   0.2371
  11.700   1.3078   0.00964   0.00555  -0.0007  0.0091  0.9993  -7.6597   0.0000   0.2371
  11.800   1.3191   0.00974   0.00565  -0.0008  0.0088  0.9996  -7.7709   0.0000   0.2370
  11.900   1.3304   0.00985   0.00575  -0.0009  0.0085  0.9998  -7.8825   0.0000   0.2369
  12.000   1.3413   0.00995   0.00585  -0.0009  0.0081  1.0000  -7.9928   0.0000   0.2368
  12.100   1.3508   0.01004   0.00594  -0.0006  0.0078  1.0000  -8.1004   0.0000   0.2364
  12.200   1.3604   0.01014   0.00603  -0.0004  0.0074  1.0000  -8.2206   0.0000   0.2361
  12.300   1.3702   0.01024   0.00613  -0.0002  0.0071  1.0000  -8.3420   0.0000   0.2357
  12.400   1.3800   0.01033   0.00622   0.0000  0.0069  1.0000  -8.4644   0.0000   0.2354
  12.500   1.3900   0.01042   0.00631   0.0002  0.0069  1.0000  -8.5893   0.0000   0.2352
  12.600   1.4000   0.01052   0.00641   0.0004  0.0069  1.0000  -8.7151   0.0000   0.2349
  12.700   1.4100   0.01061   0.00650   0.0005  0.0069  1.0000  -8.8417   0.0000   0.2346
  12.800   1.4201   0.01070   0.00659   0.0007  0.0069  1.0000  -8.9692   0.0000   0.2343
  12.900   1.4301   0.01080   0.00669   0.0008  0.0069  1.0000  -9.0974   0.0000   0.2341
  13.000   1.4401   0.01089   0.00678   0.0010  0.0069  1.0000  -9.2263   0.0000   0.2338
  13.100   1.4501   0.01099   0.00688   0.0011  0.0068  1.0000  -9.3559   0.0000   0.2335
  13.200   1.4601   0.01109   0.00698   0.0013  0.0068  1.0000  -9.4862   0.0000   0.2333
  13.300   1.4701   0.01119   0.00708   0.0014  0.0068  1.0000  -9.6171   0.0000   0.2330
  13.400   1.4800   0.01129   0.00718   0.0016  0.0068  1.0000  -9.7487   0.0000   0.2327
  13.500   1.4899   0.01139   0.00728   0.0017  0.0068  1.0000  -9.8809   0.0000   0.2325
  13.600   1.4998   0.01150   0.00739   0.0019  0.0068  1.0000  -10.0137   0.0000   0.2322
  13.700   1.5097   0.01160   0.00749   0.0021  0.0068  1.0000  -10.1471   0.0000   0.2319
  13.800   1.5195   0.01171   0.00760   0.0022  0.0068  1.0000  -10.2810   0.0000   0.2316
  13.900   1.5293   0.01182   0.00771   0.0024  0.0068  1.0000  -10.4156   0.0000   0.2314
  14.000   1.5391   0.01192   0.00782   0.0026  0.0068  1.0000  -10.5504   0.0000   0.2311
  14.100   1.5488   0.01203   0.00793   0.0027  0.0068  1.0000  -10.6859   0.0000   0.2308
  14.200   1.5585   0.01214   0.00804   0.0029  0.0068  1.0000  -10.8220   0.0000   0.2305
  14.300   1.5682   0.01226   0.00816   0.0031  0.0068  1.0000  -10.9586   0.0000   0.2302
  14.400   1.5778   0.01237   0.00827   0.0033  0.0068  1.0000  -11.0957   0.0000   0.2300
  14.500   1.5874   0.01248   0.00839   0.0035  0.0068  1.0000  -11.2332   0.0000   0.2297
  14.600   1.5970   0.01260   0.00850   0.0037  0.0068  1.0000  -11.3712   0.0000   0.2294
  14.700   1.6065   0.01272   0.00862   0.0039  0.0068  1.0000  -11.5097   0.0000   0.2291
  14.800   1.6159   0.01284   0.00874   0.0041  0.0068  1.0000  -11.6486   0.0000   0.2288
  14.900   1.6254   0.01296   0.00887   0.0043  0.0068  1.0000  -11.7878   0.0000   0.2285
  15.000   1.6347   0.01308   0.00899   0.0045  0.0068  1.0000  -11.9275   0.0000   0.2282
  15.100   1.6440   0.01320   0.00912   0.0047  0.0067  1.0000  -12.0675   0.0000   0.2279
  15.200   1.6533   0.01333   0.00924   0.0049  0.0067  1.0000  -12.2079   0.0000   0.2275
  15.300   1.6625   0.01345   0.00937   0.0052  0.0067  1.0000  -12.3487   0.0000   0.2272
  15.400   1.6717   0.01358   0.00950   0.0054  0.0067  1.0000  -12.4897   0.0000   0.2269
  15.500   1.6808   0.01371   0.00964   0.0057  0.0067  1.0000  -12.6310   0.0000   0.2266
  15.600   1.6898   0.01384   0.00977   0.0059  0.0067  1.0000  -12.7726   0.0000   0.2263
  15.700   1.6988   0.01398   0.00991   0.0062  0.0067  1.0000  -12.9144   0.0000   0.2259
  15.800   1.7077   0.01411   0.01005   0.0065  0.0067  1.0000  -13.0566   0.0000   0.2256
  15.900   1.7166   0.01425   0.01019   0.0067  0.0067  1.0000  -13.1989   0.0000   0.2253
  16.000   1.7254   0.01439   0.01033   0.0070  0.0067  1.0000  -13.3413   0.0000   0.2249
  16.100   1.7341   0.01453   0.01047   0.0073  0.0067  1.0000  -13.4838   0.0000   0.2246
  16.200   1.7427   0.01467   0.01062   0.0076  0.0067  1.0000  -13.6264   0.0000   0.2242
  16.300   1.7513   0.01481   0.01077   0.0079  0.0067  1.0000  -13.7691   0.0000   0.2238
  16.400   1.7598   0.01496   0.01092   0.0083  0.0067  1.0000  -13.9118   0.0000   0.2235
  16.500   1.7681   0.01511   0.01107   0.0086  0.0067  1.0000  -14.0544   0.0000   0.2231
  16.600   1.7764   0.01526   0.01123   0.0089  0.0066  1.0000  -14.1971   0.0000   0.2227
  16.700   1.7846   0.01541   0.01138   0.0093  0.0066  1.0000  -14.3396   0.0000   0.2224
  16.800   1.7927   0.01557   0.01154   0.0097  0.0066  1.0000  -14.4819   0.0000   0.2220
  16.900   1.8007   0.01572   0.01171   0.0101  0.0066  1.0000  -14.6241   0.0000   0.2216
  17.000   1.8086   0.01588   0.01187   0.0105  0.0066  1.0000  -14.7659   0.0000   0.2212
  17.100   1.8164   0.01605   0.01204   0.0109  0.0066  1.0000  -14.9074   0.0000   0.2208
  17.200   1.8240   0.01621   0.01221   0.0113  0.0066  1.0000  -15.0483   0.0000   0.2203
  17.300   1.8313   0.01638   0.01238   0.0118  0.0066  1.0000  -15.1874   0.0000   0.2199
  17.400   1.8383   0.01655   0.01256   0.0123  0.0066  1.0000  -15.3251   0.0000   0.2194
  17.500   1.8448   0.01672   0.01274   0.0130  0.0066  1.0000  -15.4587   0.0000   0.2189
  17.600   1.8506   0.01690   0.01292   0.0137  0.0065  1.0000  -15.5873   0.0000   0.2183
  17.700   1.8558   0.01708   0.01311   0.0146  0.0065  1.0000  -15.7123   0.0000   0.2176
  17.800   1.8611   0.01727   0.01331   0.0154  0.0065  1.0000  -15.8378   0.0000   0.2170
  17.900   1.8665   0.01746   0.01351   0.0162  0.0065  1.0000  -15.9649   0.0000   0.2164
  18.000   1.8717   0.01767   0.01373   0.0169  0.0065  1.0000  -16.0903   0.0000   0.2158
  18.100   1.8768   0.01788   0.01395   0.0177  0.0065  1.0000  -16.2156   0.0000   0.2152
  18.200   1.8821   0.01810   0.01417   0.0184  0.0065  1.0000  -16.3420   0.0000   0.2146
  18.300   1.8870   0.01833   0.01442   0.0192  0.0064  1.0000  -16.4663   0.0000   0.2141
  18.400   1.8921   0.01858   0.01467   0.0199  0.0064  1.0000  -16.5919   0.0000   0.2135
  18.500   1.8972   0.01882   0.01493   0.0205  0.0064  1.0000  -16.7185   0.0000   0.2130
  18.600   1.9016   0.01909   0.01520   0.0213  0.0064  1.0000  -16.8393   0.0000   0.2124
  18.700   1.9061   0.01937   0.01549   0.0220  0.0064  1.0000  -16.9606   0.0000   0.2118
  18.800   1.9108   0.01965   0.01578   0.0227  0.0063  1.0000  -17.0850   0.0000   0.2113
  18.900   1.9152   0.01996   0.01610   0.0233  0.0063  1.0000  -17.2060   0.0000   0.2107
  19.000   1.9193   0.02029   0.01643   0.0240  0.0063  1.0000  -17.3251   0.0000   0.2102
  19.100   1.9237   0.02061   0.01677   0.0246  0.0062  1.0000  -17.4470   0.0000   0.2097
  19.200   1.9276   0.02096   0.01713   0.0252  0.0062  1.0000  -17.5643   0.0000   0.2091
  19.300   1.9307   0.02135   0.01753   0.0259  0.0062  1.0000  -17.6752   0.0000   0.2086
  19.400   1.9344   0.02174   0.01793   0.0265  0.0061  1.0000  -17.7910   0.0000   0.2080
  19.500   1.9378   0.02215   0.01835   0.0271  0.0061  1.0000  -17.9046   0.0000   0.2075
  19.600   1.9404   0.02262   0.01884   0.0277  0.0060  1.0000  -18.0115   0.0000   0.2070
  19.700   1.9436   0.02309   0.01931   0.0282  0.0059  1.0000  -18.1232   0.0000   0.2065
  19.800   1.9464   0.02359   0.01982   0.0288  0.0059  1.0000  -18.2309   0.0000   0.2060
  19.900   1.9484   0.02415   0.02039   0.0293  0.0058  1.0000  -18.3321   0.0000   0.2055
  20.000   1.9510   0.02468   0.02093   0.0298  0.0057  1.0000  -18.4380   0.0000   0.2051


