xflr5 v6.32

 Calculated polar for: NACA 0012

 1 1 Reynolds number fixed          Mach number fixed         

 xtrf =   1.000 (top)        1.000 (bottom)
 Mach =   0.000     Re =    35.000 e 6     Ncrit =   9.000

  alpha     CL        CD       CDp       Cm    Top Xtr Bot Xtr   Cpmin    Chinge    XCp    
 ------- -------- --------- --------- -------- ------- ------- -------- --------- ---------
 -15.000  -1.6588   0.01114   0.00738  -0.0010  1.0000  0.0066  -12.1302   0.0000   0.2302
 -14.900  -1.6490   0.01104   0.00728  -0.0009  1.0000  0.0066  -11.9858   0.0000   0.2305
 -14.800  -1.6391   0.01094   0.00719  -0.0007  1.0000  0.0067  -11.8419   0.0000   0.2308
 -14.700  -1.6292   0.01084   0.00709  -0.0006  1.0000  0.0067  -11.6985   0.0000   0.2311
 -14.600  -1.6193   0.01075   0.00700  -0.0004  1.0000  0.0067  -11.5557   0.0000   0.2314
 -14.500  -1.6093   0.01065   0.00690  -0.0003  1.0000  0.0067  -11.4134   0.0000   0.2316
 -14.400  -1.5993   0.01056   0.00681  -0.0001  1.0000  0.0067  -11.2717   0.0000   0.2319
 -14.300  -1.5892   0.01047   0.00672  -0.0000  1.0000  0.0067  -11.1306   0.0000   0.2322
 -14.200  -1.5792   0.01038   0.00663   0.0001  1.0000  0.0067  -10.9900   0.0000   0.2324
 -14.100  -1.5691   0.01029   0.00654   0.0002  1.0000  0.0067  -10.8501   0.0000   0.2327
 -14.000  -1.5590   0.01020   0.00645   0.0004  1.0000  0.0067  -10.7107   0.0000   0.2329
 -13.900  -1.5488   0.01011   0.00637   0.0005  1.0000  0.0067  -10.5721   0.0000   0.2332
 -13.800  -1.5383   0.01002   0.00628   0.0005  0.9995  0.0067  -10.4319   0.0000   0.2334
 -13.700  -1.5274   0.00993   0.00619   0.0005  0.9986  0.0067  -10.2901   0.0000   0.2336
 -13.600  -1.5165   0.00984   0.00611   0.0004  0.9976  0.0067  -10.1484   0.0000   0.2337
 -13.500  -1.5053   0.00976   0.00602   0.0003  0.9965  0.0068  -10.0068   0.0000   0.2338
 -13.400  -1.4941   0.00967   0.00594   0.0002  0.9954  0.0068  -9.8654   0.0000   0.2339
 -13.300  -1.4828   0.00958   0.00585   0.0001  0.9942  0.0068  -9.7244   0.0000   0.2340
 -13.200  -1.4716   0.00950   0.00577   0.0000  0.9928  0.0068  -9.5845   0.0000   0.2341
 -13.100  -1.4612   0.00942   0.00569   0.0001  0.9921  0.0068  -9.4512   0.0000   0.2344
 -13.000  -1.4509   0.00934   0.00562   0.0002  0.9910  0.0068  -9.3188   0.0000   0.2346
 -12.900  -1.4408   0.00926   0.00554   0.0004  0.9890  0.0068  -9.1880   0.0000   0.2349
 -12.800  -1.4309   0.00919   0.00547   0.0006  0.9854  0.0068  -9.0595   0.0000   0.2352
 -12.700  -1.4210   0.00912   0.00539   0.0008  0.9807  0.0068  -8.9324   0.0000   0.2355
 -12.600  -1.4106   0.00905   0.00532   0.0009  0.9789  0.0068  -8.8026   0.0000   0.2358
 -12.500  -1.4003   0.00897   0.00524   0.0010  0.9770  0.0068  -8.6737   0.0000   0.2360
 -12.400  -1.3901   0.00891   0.00517   0.0012  0.9728  0.0068  -8.5471   0.0000   0.2363
 -12.300  -1.3802   0.00884   0.00510   0.0014  0.9668  0.0068  -8.4222   0.0000   0.2366
 -12.200  -1.3698   0.00878   0.00503   0.0015  0.9630  0.0068  -8.2956   0.0000   0.2369
 -12.100  -1.3592   0.00871   0.00495   0.0016  0.9610  0.0068  -8.1687   0.0000   0.2371
 -12.000  -1.3488   0.00864   0.00488   0.0017  0.9565  0.0068  -8.0483   0.0000   0.2373
 -11.900  -1.3386   0.00859   0.00481   0.0018  0.9497  0.0068  -7.9394   0.0000   0.2376
 -11.800  -1.3280   0.00852   0.00474   0.0019  0.9442  0.0068  -7.8299   0.0000   0.2378
 -11.700  -1.3174   0.00846   0.00467   0.0020  0.9420  0.0069  -7.7205   0.0000   0.2381
 -11.600  -1.3068   0.00840   0.00461   0.0021  0.9372  0.0069  -7.6121   0.0000   0.2383
 -11.500  -1.2963   0.00835   0.00454   0.0022  0.9288  0.0069  -7.5049   0.0000   0.2385
 -11.400  -1.2856   0.00828   0.00447   0.0022  0.9230  0.0069  -7.3972   0.0000   0.2387
 -11.300  -1.2749   0.00822   0.00441   0.0023  0.9201  0.0069  -7.2900   0.0000   0.2389
 -11.200  -1.2643   0.00817   0.00434   0.0024  0.9141  0.0070  -7.1842   0.0000   0.2392
 -11.100  -1.2536   0.00812   0.00428   0.0024  0.9048  0.0072  -7.0791   0.0000   0.2394
 -11.000  -1.2428   0.00805   0.00421   0.0025  0.8998  0.0075  -6.9739   0.0000   0.2396
 -10.900  -1.2321   0.00799   0.00415   0.0025  0.8959  0.0077  -6.8695   0.0000   0.2398
 -10.800  -1.2214   0.00794   0.00408   0.0026  0.8886  0.0080  -6.7660   0.0000   0.2400
 -10.700  -1.2106   0.00789   0.00402   0.0026  0.8785  0.0083  -6.6629   0.0000   0.2402
 -10.600  -1.1998   0.00783   0.00395   0.0027  0.8748  0.0085  -6.5600   0.0000   0.2404
 -10.500  -1.1889   0.00777   0.00389   0.0027  0.8709  0.0088  -6.4580   0.0000   0.2406
 -10.400  -1.1782   0.00772   0.00382   0.0028  0.8617  0.0091  -6.3568   0.0000   0.2408
 -10.300  -1.1674   0.00766   0.00375   0.0028  0.8519  0.0094  -6.2563   0.0000   0.2410
 -10.200  -1.1566   0.00759   0.00368   0.0028  0.8486  0.0097  -6.1563   0.0000   0.2412
 -10.100  -1.1458   0.00752   0.00361   0.0029  0.8431  0.0100  -6.0573   0.0000   0.2414
 -10.000  -1.1351   0.00747   0.00354   0.0030  0.8327  0.0103  -5.9594   0.0000   0.2416
  -9.900  -1.1243   0.00740   0.00346   0.0030  0.8246  0.0107  -5.8615   0.0000   0.2418
  -9.800  -1.1135   0.00732   0.00339   0.0030  0.8215  0.0110  -5.7642   0.0000   0.2420
  -9.700  -1.1027   0.00726   0.00332   0.0031  0.8153  0.0113  -5.6675   0.0000   0.2422
  -9.600  -1.0919   0.00721   0.00325   0.0031  0.8043  0.0116  -5.5713   0.0000   0.2424
  -9.500  -1.0809   0.00715   0.00319   0.0031  0.7970  0.0117  -5.4748   0.0000   0.2425
  -9.400  -1.0698   0.00710   0.00314   0.0032  0.7934  0.0118  -5.3788   0.0000   0.2427
  -9.300  -1.0588   0.00707   0.00309   0.0032  0.7866  0.0118  -5.2837   0.0000   0.2429
  -9.200  -1.0478   0.00703   0.00304   0.0032  0.7758  0.0119  -5.1892   0.0000   0.2430
  -9.100  -1.0367   0.00699   0.00299   0.0032  0.7691  0.0119  -5.0950   0.0000   0.2432
  -9.000  -1.0255   0.00695   0.00294   0.0032  0.7655  0.0120  -5.0015   0.0000   0.2433
  -8.900  -1.0145   0.00691   0.00290   0.0032  0.7581  0.0120  -4.9089   0.0000   0.2435
  -8.800  -1.0034   0.00688   0.00285   0.0032  0.7472  0.0120  -4.8170   0.0000   0.2436
  -8.700  -0.9922   0.00684   0.00280   0.0032  0.7408  0.0120  -4.7258   0.0000   0.2438
  -8.600  -0.9810   0.00680   0.00276   0.0032  0.7373  0.0121  -4.6349   0.0000   0.2439
  -8.500  -0.9698   0.00677   0.00271   0.0031  0.7302  0.0121  -4.5448   0.0000   0.2441
  -8.400  -0.9587   0.00675   0.00267   0.0031  0.7193  0.0121  -4.4555   0.0000   0.2442
  -8.300  -0.9475   0.00671   0.00263   0.0031  0.7122  0.0121  -4.3665   0.0000   0.2444
  -8.200  -0.9362   0.00667   0.00258   0.0031  0.7089  0.0121  -4.2782   0.0000   0.2445
  -8.100  -0.9250   0.00664   0.00254   0.0031  0.7032  0.0123  -4.1908   0.0000   0.2446
  -8.000  -0.9139   0.00661   0.00250   0.0031  0.6927  0.0127  -4.1043   0.0000   0.2448
  -7.900  -0.9027   0.00657   0.00246   0.0031  0.6836  0.0134  -4.0183   0.0000   0.2449
  -7.800  -0.8914   0.00653   0.00241   0.0031  0.6808  0.0142  -3.9330   0.0000   0.2450
  -7.700  -0.8803   0.00649   0.00237   0.0031  0.6757  0.0151  -3.8488   0.0000   0.2452
  -7.600  -0.8692   0.00645   0.00232   0.0031  0.6659  0.0159  -3.7659   0.0000   0.2453
  -7.500  -0.8581   0.00639   0.00226   0.0031  0.6561  0.0167  -3.6835   0.0000   0.2455
  -7.400  -0.8470   0.00633   0.00220   0.0031  0.6528  0.0174  -3.6015   0.0000   0.2456
  -7.300  -0.8358   0.00628   0.00215   0.0031  0.6498  0.0180  -3.5200   0.0000   0.2458
  -7.200  -0.8246   0.00626   0.00211   0.0031  0.6403  0.0183  -3.4391   0.0000   0.2459
  -7.100  -0.8134   0.00623   0.00208   0.0030  0.6291  0.0185  -3.3584   0.0000   0.2460
  -7.000  -0.8020   0.00620   0.00203   0.0030  0.6241  0.0186  -3.2775   0.0000   0.2461
  -6.900  -0.7906   0.00617   0.00200   0.0030  0.6211  0.0186  -3.1980   0.0000   0.2462
  -6.800  -0.7793   0.00614   0.00197   0.0029  0.6158  0.0187  -3.1193   0.0000   0.2464
  -6.700  -0.7680   0.00613   0.00194   0.0029  0.6058  0.0188  -3.0448   0.0000   0.2465
  -6.600  -0.7566   0.00610   0.00191   0.0029  0.5960  0.0188  -2.9787   0.0000   0.2466
  -6.500  -0.7452   0.00607   0.00187   0.0028  0.5934  0.0190  -2.9130   0.0000   0.2467
  -6.400  -0.7338   0.00605   0.00184   0.0028  0.5895  0.0198  -2.8481   0.0000   0.2468
  -6.300  -0.7225   0.00603   0.00181   0.0028  0.5807  0.0207  -2.7840   0.0000   0.2469
  -6.200  -0.7112   0.00601   0.00178   0.0028  0.5711  0.0216  -2.7202   0.0000   0.2470
  -6.100  -0.6998   0.00597   0.00174   0.0027  0.5655  0.0225  -2.6569   0.0000   0.2471
  -6.000  -0.6884   0.00593   0.00170   0.0027  0.5628  0.0235  -2.5943   0.0000   0.2472
  -5.900  -0.6772   0.00590   0.00166   0.0027  0.5569  0.0244  -2.5325   0.0000   0.2473
  -5.800  -0.6659   0.00587   0.00163   0.0027  0.5469  0.0255  -2.4714   0.0000   0.2474
  -5.700  -0.6546   0.00583   0.00159   0.0026  0.5376  0.0262  -2.4103   0.0000   0.2475
  -5.600  -0.6431   0.00580   0.00156   0.0026  0.5354  0.0265  -2.3493   0.0000   0.2476
  -5.400  -0.6203   0.00577   0.00151   0.0025  0.5251  0.0268  -2.2288   0.0000   0.2478
  -5.300  -0.6089   0.00575   0.00148   0.0025  0.5149  0.0290  -2.1692   0.0000   0.2479
  -5.200  -0.5975   0.00572   0.00144   0.0024  0.5074  0.0310  -2.1106   0.0000   0.2480
  -5.100  -0.5861   0.00568   0.00141   0.0024  0.5053  0.0325  -2.0526   0.0000   0.2480
  -5.000  -0.5747   0.00565   0.00138   0.0024  0.5011  0.0340  -1.9953   0.0000   0.2482
  -4.900  -0.5634   0.00562   0.00135   0.0024  0.4931  0.0352  -1.9387   0.0000   0.2483
  -4.800  -0.5520   0.00561   0.00132   0.0023  0.4833  0.0359  -1.8821   0.0000   0.2483
  -4.700  -0.5405   0.00558   0.00130   0.0023  0.4782  0.0362  -1.8257   0.0000   0.2484
  -4.600  -0.5289   0.00556   0.00127   0.0022  0.4755  0.0363  -1.7698   0.0000   0.2484
  -4.500  -0.5175   0.00556   0.00126   0.0022  0.4691  0.0375  -1.7209   0.0000   0.2485
  -4.400  -0.5060   0.00555   0.00124   0.0021  0.4604  0.0395  -1.6745   0.0000   0.2486
  -4.300  -0.4945   0.00553   0.00122   0.0021  0.4518  0.0414  -1.6285   0.0000   0.2486
  -4.200  -0.4831   0.00549   0.00118   0.0020  0.4493  0.0434  -1.5830   0.0000   0.2487
  -4.100  -0.4717   0.00545   0.00115   0.0020  0.4468  0.0454  -1.5380   0.0000   0.2488
  -4.000  -0.4603   0.00544   0.00113   0.0020  0.4383  0.0465  -1.4933   0.0000   0.2489
  -3.900  -0.4488   0.00544   0.00112   0.0019  0.4286  0.0469  -1.4488   0.0000   0.2489
  -3.800  -0.4372   0.00542   0.00109   0.0019  0.4222  0.0473  -1.4043   0.0000   0.2490
  -3.700  -0.4256   0.00540   0.00108   0.0018  0.4205  0.0499  -1.3603   0.0000   0.2490
  -3.600  -0.4141   0.00538   0.00106   0.0017  0.4165  0.0526  -1.3169   0.0000   0.2490
  -3.500  -0.4030   0.00534   0.00102   0.0018  0.4077  0.0584  -1.2748   0.0000   0.2492
  -3.400  -0.3915   0.00533   0.00100   0.0017  0.3976  0.0592  -1.2321   0.0000   0.2493
  -3.300  -0.3799   0.00531   0.00098   0.0016  0.3939  0.0624  -1.1942   0.0000   0.2493
  -3.200  -0.3683   0.00529   0.00096   0.0016  0.3916  0.0655  -1.1583   0.0000   0.2493
  -3.100  -0.3569   0.00527   0.00094   0.0016  0.3854  0.0685  -1.1230   0.0000   0.2494
  -3.000  -0.3455   0.00526   0.00093   0.0015  0.3766  0.0711  -1.0879   0.0000   0.2495
  -2.900  -0.3340   0.00524   0.00091   0.0015  0.3679  0.0721  -1.0527   0.0000   0.2495
  -2.800  -0.3223   0.00523   0.00090   0.0014  0.3661  0.0726  -1.0177   0.0000   0.2495
  -2.700  -0.3108   0.00522   0.00089   0.0013  0.3619  0.0761  -0.9831   0.0000   0.2495
  -2.600  -0.2993   0.00522   0.00087   0.0013  0.3540  0.0797  -0.9491   0.0000   0.2496
  -2.500  -0.2879   0.00520   0.00086   0.0013  0.3447  0.0832  -0.9197   0.0000   0.2496
  -2.400  -0.2763   0.00518   0.00083   0.0012  0.3406  0.0858  -0.8905   0.0000   0.2497
  -2.200  -0.2533   0.00517   0.00082   0.0011  0.3307  0.0928  -0.8327   0.0000   0.2497
  -2.100  -0.2420   0.00513   0.00079   0.0011  0.3224  0.1007  -0.8047   0.0000   0.2499
  -2.000  -0.2304   0.00511   0.00078   0.0010  0.3153  0.1026  -0.7781   0.0000   0.2499
  -1.900  -0.2188   0.00510   0.00077   0.0010  0.3134  0.1058  -0.7532   0.0000   0.2498
  -1.800  -0.2072   0.00511   0.00076   0.0009  0.3079  0.1100  -0.7286   0.0000   0.2498
  -1.700  -0.1958   0.00510   0.00075   0.0009  0.2990  0.1142  -0.7044   0.0000   0.2499
  -1.600  -0.1843   0.00508   0.00074   0.0008  0.2907  0.1181  -0.6810   0.0000   0.2500
  -1.500  -0.1727   0.00507   0.00073   0.0008  0.2890  0.1202  -0.6595   0.0000   0.2499
  -1.400  -0.1612   0.00505   0.00072   0.0007  0.2849  0.1298  -0.6384   0.0000   0.2500
  -1.300  -0.1499   0.00504   0.00071   0.0007  0.2758  0.1360  -0.6176   0.0000   0.2502
  -1.200  -0.1383   0.00504   0.00070   0.0006  0.2668  0.1373  -0.5981   0.0000   0.2501
  -1.100  -0.1266   0.00503   0.00070   0.0006  0.2648  0.1402  -0.5792   0.0000   0.2500
  -1.000  -0.1150   0.00503   0.00069   0.0005  0.2620  0.1459  -0.5606   0.0000   0.2499
  -0.900  -0.1038   0.00502   0.00068   0.0005  0.2534  0.1541  -0.5435   0.0000   0.2502
  -0.800  -0.0922   0.00502   0.00068   0.0004  0.2433  0.1565  -0.5269   0.0000   0.2502
  -0.700  -0.0806   0.00500   0.00067   0.0004  0.2410  0.1651  -0.5103   0.0000   0.2501
  -0.600  -0.0692   0.00498   0.00066   0.0003  0.2378  0.1719  -0.4949   0.0000   0.2502
  -0.500  -0.0577   0.00499   0.00066   0.0003  0.2310  0.1748  -0.4801   0.0000   0.2503
  -0.400  -0.0461   0.00500   0.00067   0.0002  0.2217  0.1761  -0.4652   0.0000   0.2502
  -0.300  -0.0344   0.00500   0.00066   0.0001  0.2183  0.1816  -0.4513   0.0000   0.2497
  -0.200  -0.0231   0.00499   0.00066   0.0001  0.2130  0.1917  -0.4380   0.0000   0.2503
  -0.100  -0.0117   0.00499   0.00066   0.0001  0.2054  0.1966  -0.4248   0.0000   0.2517
   0.000   0.0000   0.00500   0.00067  -0.0000  0.1989  0.1989  -0.4121   0.0000   0.3878
   0.100   0.0117   0.00499   0.00066  -0.0001  0.1966  0.2054  -0.4248   0.0000   0.2517
   0.200   0.0231   0.00499   0.00066  -0.0001  0.1917  0.2130  -0.4380   0.0000   0.2503
   0.300   0.0344   0.00500   0.00066  -0.0001  0.1816  0.2183  -0.4513   0.0000   0.2497
   0.400   0.0461   0.00500   0.00067  -0.0002  0.1761  0.2217  -0.4652   0.0000   0.2502
   0.500   0.0577   0.00499   0.00066  -0.0003  0.1748  0.2310  -0.4801   0.0000   0.2503
   0.600   0.0692   0.00498   0.00066  -0.0003  0.1719  0.2378  -0.4949   0.0000   0.2502
   0.700   0.0806   0.00500   0.00067  -0.0004  0.1650  0.2410  -0.5103   0.0000   0.2501
   0.800   0.0922   0.00502   0.00068  -0.0004  0.1565  0.2433  -0.5269   0.0000   0.2502
   0.900   0.1038   0.00502   0.00068  -0.0005  0.1541  0.2534  -0.5435   0.0000   0.2502
   1.000   0.1150   0.00503   0.00069  -0.0005  0.1459  0.2620  -0.5606   0.0000   0.2499
   1.100   0.1266   0.00503   0.00070  -0.0006  0.1402  0.2648  -0.5792   0.0000   0.2500
   1.200   0.1383   0.00504   0.00070  -0.0006  0.1373  0.2668  -0.5981   0.0000   0.2501
   1.300   0.1499   0.00504   0.00071  -0.0007  0.1360  0.2758  -0.6176   0.0000   0.2502
   1.400   0.1612   0.00505   0.00072  -0.0007  0.1298  0.2849  -0.6384   0.0000   0.2500
   1.500   0.1727   0.00507   0.00073  -0.0008  0.1202  0.2890  -0.6595   0.0000   0.2499
   1.600   0.1843   0.00508   0.00074  -0.0008  0.1181  0.2907  -0.6810   0.0000   0.2500
   1.700   0.1958   0.00510   0.00075  -0.0009  0.1142  0.2990  -0.7044   0.0000   0.2499
   1.800   0.2072   0.00511   0.00076  -0.0009  0.1100  0.3079  -0.7286   0.0000   0.2498
   1.900   0.2188   0.00510   0.00077  -0.0010  0.1057  0.3134  -0.7532   0.0000   0.2498
   2.000   0.2304   0.00511   0.00078  -0.0010  0.1026  0.3153  -0.7781   0.0000   0.2499
   2.100   0.2420   0.00513   0.00079  -0.0011  0.1007  0.3224  -0.8047   0.0000   0.2499
   2.200   0.2533   0.00517   0.00082  -0.0011  0.0928  0.3307  -0.8327   0.0000   0.2497
   2.300   0.2647   0.00516   0.00082  -0.0011  0.0868  0.3383  -0.8614   0.0000   0.2497
   2.400   0.2763   0.00518   0.00083  -0.0012  0.0858  0.3406  -0.8905   0.0000   0.2497
   2.500   0.2879   0.00520   0.00086  -0.0013  0.0832  0.3447  -0.9197   0.0000   0.2497
   2.600   0.2993   0.00522   0.00087  -0.0013  0.0797  0.3540  -0.9491   0.0000   0.2496
   2.700   0.3108   0.00522   0.00089  -0.0013  0.0761  0.3619  -0.9831   0.0000   0.2495
   2.800   0.3223   0.00523   0.00090  -0.0014  0.0726  0.3661  -1.0177   0.0000   0.2495
   2.900   0.3340   0.00524   0.00091  -0.0015  0.0721  0.3679  -1.0528   0.0000   0.2495
   3.000   0.3456   0.00526   0.00093  -0.0015  0.0711  0.3766  -1.0879   0.0000   0.2495
   3.100   0.3569   0.00527   0.00094  -0.0016  0.0685  0.3854  -1.1230   0.0000   0.2494
   3.200   0.3683   0.00529   0.00096  -0.0016  0.0655  0.3916  -1.1583   0.0000   0.2493
   3.300   0.3799   0.00531   0.00098  -0.0016  0.0624  0.3939  -1.1942   0.0000   0.2493
   3.400   0.3915   0.00533   0.00100  -0.0017  0.0592  0.3976  -1.2321   0.0000   0.2493
   3.500   0.4030   0.00534   0.00102  -0.0018  0.0584  0.4077  -1.2748   0.0000   0.2492
   3.600   0.4141   0.00538   0.00106  -0.0018  0.0526  0.4165  -1.3169   0.0000   0.2491
   3.700   0.4256   0.00540   0.00108  -0.0018  0.0499  0.4205  -1.3604   0.0000   0.2490
   3.800   0.4372   0.00542   0.00109  -0.0019  0.0473  0.4222  -1.4044   0.0000   0.2490
   3.900   0.4488   0.00544   0.00112  -0.0019  0.0469  0.4286  -1.4488   0.0000   0.2490
   4.000   0.4603   0.00544   0.00113  -0.0020  0.0465  0.4383  -1.4934   0.0000   0.2489
   4.200   0.4831   0.00549   0.00118  -0.0020  0.0434  0.4493  -1.5830   0.0000   0.2487
   4.300   0.4946   0.00553   0.00122  -0.0021  0.0414  0.4518  -1.6286   0.0000   0.2487
   4.400   0.5060   0.00555   0.00124  -0.0021  0.0395  0.4604  -1.6746   0.0000   0.2486
   4.500   0.5175   0.00556   0.00126  -0.0022  0.0375  0.4691  -1.7209   0.0000   0.2485
   4.600   0.5289   0.00556   0.00127  -0.0022  0.0363  0.4755  -1.7699   0.0000   0.2485
   4.700   0.5405   0.00558   0.00130  -0.0023  0.0362  0.4782  -1.8257   0.0000   0.2484
   4.800   0.5520   0.00561   0.00132  -0.0023  0.0359  0.4833  -1.8821   0.0000   0.2484
   4.900   0.5634   0.00562   0.00135  -0.0024  0.0352  0.4931  -1.9387   0.0000   0.2483
   5.000   0.5747   0.00565   0.00138  -0.0024  0.0340  0.5011  -1.9954   0.0000   0.2482
   5.100   0.5861   0.00568   0.00141  -0.0024  0.0325  0.5053  -2.0526   0.0000   0.2481
   5.200   0.5975   0.00572   0.00144  -0.0024  0.0310  0.5074  -2.1107   0.0000   0.2480
   5.300   0.6089   0.00575   0.00148  -0.0025  0.0290  0.5149  -2.1693   0.0000   0.2479
   5.400   0.6203   0.00577   0.00151  -0.0025  0.0268  0.5251  -2.2289   0.0000   0.2478
   5.600   0.6432   0.00580   0.00156  -0.0026  0.0265  0.5354  -2.3493   0.0000   0.2476
   5.700   0.6546   0.00583   0.00159  -0.0026  0.0262  0.5376  -2.4104   0.0000   0.2475
   5.800   0.6660   0.00587   0.00163  -0.0027  0.0255  0.5469  -2.4715   0.0000   0.2474
   5.900   0.6772   0.00590   0.00166  -0.0027  0.0244  0.5569  -2.5326   0.0000   0.2473
   6.000   0.6885   0.00593   0.00170  -0.0027  0.0235  0.5628  -2.5944   0.0000   0.2472
   6.100   0.6998   0.00597   0.00174  -0.0027  0.0225  0.5655  -2.6570   0.0000   0.2471
   6.200   0.7112   0.00601   0.00178  -0.0028  0.0216  0.5711  -2.7203   0.0000   0.2470
   6.300   0.7226   0.00603   0.00181  -0.0028  0.0207  0.5807  -2.7841   0.0000   0.2469
   6.400   0.7339   0.00605   0.00184  -0.0028  0.0198  0.5895  -2.8482   0.0000   0.2468
   6.500   0.7452   0.00607   0.00187  -0.0029  0.0190  0.5934  -2.9131   0.0000   0.2467
   6.600   0.7567   0.00610   0.00191  -0.0029  0.0188  0.5961  -2.9788   0.0000   0.2466
   6.700   0.7680   0.00613   0.00194  -0.0029  0.0188  0.6058  -3.0449   0.0000   0.2465
   6.800   0.7793   0.00614   0.00197  -0.0030  0.0187  0.6158  -3.1195   0.0000   0.2464
   6.900   0.7907   0.00617   0.00200  -0.0030  0.0186  0.6211  -3.1982   0.0000   0.2463
   7.000   0.8021   0.00620   0.00203  -0.0030  0.0186  0.6241  -3.2777   0.0000   0.2462
   7.100   0.8134   0.00623   0.00208  -0.0031  0.0185  0.6291  -3.3586   0.0000   0.2461
   7.200   0.8247   0.00626   0.00211  -0.0031  0.0183  0.6403  -3.4393   0.0000   0.2459
   7.400   0.8470   0.00633   0.00220  -0.0031  0.0174  0.6528  -3.6017   0.0000   0.2456
   7.500   0.8582   0.00639   0.00226  -0.0031  0.0167  0.6562  -3.6838   0.0000   0.2455
   7.600   0.8693   0.00645   0.00232  -0.0031  0.0159  0.6659  -3.7661   0.0000   0.2453
   7.700   0.8803   0.00649   0.00237  -0.0031  0.0151  0.6757  -3.8491   0.0000   0.2452
   7.800   0.8915   0.00653   0.00241  -0.0031  0.0142  0.6808  -3.9333   0.0000   0.2450
   7.900   0.9027   0.00657   0.00246  -0.0031  0.0134  0.6836  -4.0186   0.0000   0.2449
   8.000   0.9140   0.00661   0.00250  -0.0031  0.0127  0.6927  -4.1046   0.0000   0.2448
   8.100   0.9251   0.00664   0.00254  -0.0031  0.0123  0.7032  -4.1910   0.0000   0.2446
   8.200   0.9363   0.00667   0.00258  -0.0031  0.0121  0.7089  -4.2785   0.0000   0.2445
   8.300   0.9476   0.00671   0.00263  -0.0031  0.0121  0.7122  -4.3668   0.0000   0.2444
   8.400   0.9588   0.00675   0.00267  -0.0032  0.0121  0.7193  -4.4558   0.0000   0.2442
   8.500   0.9699   0.00677   0.00271  -0.0032  0.0121  0.7302  -4.5451   0.0000   0.2441
   8.600   0.9811   0.00680   0.00276  -0.0032  0.0121  0.7373  -4.6352   0.0000   0.2439
   8.700   0.9923   0.00684   0.00280  -0.0032  0.0120  0.7408  -4.7262   0.0000   0.2438
   8.800   1.0034   0.00688   0.00285  -0.0032  0.0120  0.7473  -4.8174   0.0000   0.2437
   8.900   1.0145   0.00691   0.00290  -0.0032  0.0120  0.7581  -4.9092   0.0000   0.2435
   9.100   1.0368   0.00699   0.00299  -0.0032  0.0119  0.7691  -5.0954   0.0000   0.2432
   9.200   1.0479   0.00703   0.00304  -0.0032  0.0119  0.7758  -5.1896   0.0000   0.2431
   9.300   1.0589   0.00707   0.00309  -0.0032  0.0118  0.7867  -5.2841   0.0000   0.2429
   9.400   1.0699   0.00710   0.00314  -0.0032  0.0118  0.7934  -5.3792   0.0000   0.2427
   9.500   1.0810   0.00715   0.00319  -0.0032  0.0117  0.7970  -5.4753   0.0000   0.2426
   9.600   1.0920   0.00721   0.00325  -0.0032  0.0116  0.8043  -5.5717   0.0000   0.2424
   9.700   1.1028   0.00726   0.00332  -0.0031  0.0113  0.8153  -5.6680   0.0000   0.2422
   9.800   1.1136   0.00732   0.00339  -0.0031  0.0110  0.8215  -5.7647   0.0000   0.2420
   9.900   1.1244   0.00740   0.00346  -0.0030  0.0107  0.8246  -5.8620   0.0000   0.2418
  10.000   1.1352   0.00747   0.00354  -0.0030  0.0103  0.8327  -5.9599   0.0000   0.2416
  10.100   1.1460   0.00752   0.00361  -0.0029  0.0100  0.8431  -6.0579   0.0000   0.2414
  10.200   1.1567   0.00759   0.00368  -0.0029  0.0097  0.8486  -6.1568   0.0000   0.2412
  10.300   1.1676   0.00766   0.00375  -0.0028  0.0094  0.8519  -6.2568   0.0000   0.2410
  10.400   1.1784   0.00772   0.00382  -0.0028  0.0091  0.8617  -6.3573   0.0000   0.2408
  10.600   1.1999   0.00783   0.00395  -0.0027  0.0085  0.8748  -6.5607   0.0000   0.2404
  10.700   1.2108   0.00789   0.00402  -0.0027  0.0083  0.8785  -6.6635   0.0000   0.2402
  10.800   1.2215   0.00794   0.00408  -0.0026  0.0080  0.8886  -6.7666   0.0000   0.2400
  10.900   1.2322   0.00799   0.00415  -0.0026  0.0077  0.8959  -6.8701   0.0000   0.2398
  11.000   1.2430   0.00805   0.00421  -0.0025  0.0075  0.8998  -6.9746   0.0000   0.2396
  11.100   1.2538   0.00812   0.00428  -0.0025  0.0072  0.9048  -7.0798   0.0000   0.2394
  11.200   1.2644   0.00817   0.00434  -0.0024  0.0070  0.9141  -7.1850   0.0000   0.2392
  11.300   1.2751   0.00822   0.00441  -0.0023  0.0069  0.9201  -7.2908   0.0000   0.2390
  11.400   1.2858   0.00828   0.00447  -0.0023  0.0069  0.9229  -7.3980   0.0000   0.2388
  11.500   1.2965   0.00835   0.00454  -0.0022  0.0069  0.9288  -7.5057   0.0000   0.2386
  11.600   1.3070   0.00840   0.00461  -0.0021  0.0069  0.9372  -7.6130   0.0000   0.2383
  11.700   1.3175   0.00846   0.00467  -0.0020  0.0069  0.9419  -7.7213   0.0000   0.2381
  11.800   1.3282   0.00852   0.00474  -0.0020  0.0068  0.9442  -7.8308   0.0000   0.2379
  11.900   1.3387   0.00859   0.00481  -0.0019  0.0068  0.9496  -7.9403   0.0000   0.2376
  12.000   1.3490   0.00864   0.00488  -0.0017  0.0068  0.9565  -8.0492   0.0000   0.2374
  12.100   1.3594   0.00871   0.00495  -0.0016  0.0068  0.9610  -8.1698   0.0000   0.2371
  12.200   1.3700   0.00878   0.00503  -0.0015  0.0068  0.9629  -8.2967   0.0000   0.2369
  12.300   1.3804   0.00885   0.00510  -0.0014  0.0068  0.9668  -8.4234   0.0000   0.2367
  12.400   1.3904   0.00891   0.00517  -0.0012  0.0068  0.9727  -8.5484   0.0000   0.2363
  12.500   1.4005   0.00897   0.00524  -0.0011  0.0068  0.9769  -8.6749   0.0000   0.2360
  12.600   1.4109   0.00905   0.00532  -0.0010  0.0068  0.9789  -8.8039   0.0000   0.2358
  12.700   1.4213   0.00912   0.00539  -0.0009  0.0068  0.9806  -8.9338   0.0000   0.2356
  12.800   1.4311   0.00919   0.00547  -0.0006  0.0068  0.9854  -9.0609   0.0000   0.2352
  12.900   1.4410   0.00926   0.00554  -0.0004  0.0068  0.9890  -9.1894   0.0000   0.2349
  13.000   1.4512   0.00934   0.00562  -0.0003  0.0068  0.9910  -9.3202   0.0000   0.2347
  13.100   1.4615   0.00942   0.00569  -0.0002  0.0068  0.9921  -9.4526   0.0000   0.2344
  13.200   1.4718   0.00950   0.00577  -0.0001  0.0068  0.9928  -9.5860   0.0000   0.2342
  13.300   1.4830   0.00958   0.00585  -0.0002  0.0068  0.9942  -9.7258   0.0000   0.2341
  13.400   1.4943   0.00967   0.00594  -0.0003  0.0068  0.9954  -9.8668   0.0000   0.2340
  13.500   1.5056   0.00976   0.00602  -0.0004  0.0068  0.9965  -10.0083   0.0000   0.2339
  13.600   1.5167   0.00984   0.00611  -0.0005  0.0067  0.9976  -10.1499   0.0000   0.2337
  13.700   1.5277   0.00993   0.00619  -0.0005  0.0067  0.9986  -10.2916   0.0000   0.2336
  13.800   1.5386   0.01002   0.00628  -0.0006  0.0067  0.9996  -10.4335   0.0000   0.2334
  13.900   1.5491   0.01011   0.00637  -0.0005  0.0067  1.0000  -10.5735   0.0000   0.2332
  14.000   1.5592   0.01020   0.00645  -0.0004  0.0067  1.0000  -10.7122   0.0000   0.2330
  14.100   1.5693   0.01029   0.00654  -0.0003  0.0067  1.0000  -10.8516   0.0000   0.2327
  14.200   1.5794   0.01038   0.00663  -0.0002  0.0067  1.0000  -10.9917   0.0000   0.2325
  14.300   1.5895   0.01047   0.00672  -0.0000  0.0067  1.0000  -11.1323   0.0000   0.2322
  14.400   1.5995   0.01056   0.00681   0.0001  0.0067  1.0000  -11.2735   0.0000   0.2319
  14.500   1.6096   0.01065   0.00690   0.0002  0.0067  1.0000  -11.4153   0.0000   0.2317
  14.600   1.6195   0.01075   0.00700   0.0004  0.0067  1.0000  -11.5576   0.0000   0.2314
  14.700   1.6295   0.01085   0.00709   0.0005  0.0067  1.0000  -11.7005   0.0000   0.2311
  14.800   1.6394   0.01094   0.00719   0.0006  0.0067  1.0000  -11.8440   0.0000   0.2308
  14.900   1.6493   0.01104   0.00728   0.0008  0.0066  1.0000  -11.9879   0.0000   0.2306
  15.000   1.6591   0.01114   0.00738   0.0009  0.0066  1.0000  -12.1324   0.0000   0.2303
  15.100   1.6689   0.01124   0.00748   0.0011  0.0066  1.0000  -12.2773   0.0000   0.2300
  15.200   1.6787   0.01134   0.00758   0.0013  0.0066  1.0000  -12.4227   0.0000   0.2297
  15.300   1.6884   0.01145   0.00769   0.0014  0.0066  1.0000  -12.5685   0.0000   0.2294
  15.400   1.6981   0.01155   0.00779   0.0016  0.0066  1.0000  -12.7148   0.0000   0.2291
  15.500   1.7078   0.01166   0.00790   0.0018  0.0066  1.0000  -12.8615   0.0000   0.2288
  15.600   1.7173   0.01177   0.00801   0.0020  0.0065  1.0000  -13.0085   0.0000   0.2285
  15.700   1.7269   0.01188   0.00812   0.0022  0.0065  1.0000  -13.1560   0.0000   0.2282
  15.800   1.7363   0.01200   0.00823   0.0024  0.0065  1.0000  -13.3036   0.0000   0.2279
  15.900   1.7457   0.01211   0.00835   0.0026  0.0065  1.0000  -13.4513   0.0000   0.2276
  16.000   1.7550   0.01224   0.00847   0.0028  0.0064  1.0000  -13.5989   0.0000   0.2273
  16.100   1.7641   0.01237   0.00860   0.0030  0.0064  1.0000  -13.7462   0.0000   0.2270
  16.200   1.7731   0.01251   0.00874   0.0033  0.0063  1.0000  -13.8929   0.0000   0.2266
  16.300   1.7819   0.01266   0.00889   0.0036  0.0062  1.0000  -14.0388   0.0000   0.2263
  16.400   1.7907   0.01282   0.00904   0.0039  0.0061  1.0000  -14.1846   0.0000   0.2259
  16.500   1.7992   0.01298   0.00920   0.0042  0.0060  1.0000  -14.3299   0.0000   0.2256
  16.600   1.8078   0.01314   0.00936   0.0045  0.0059  1.0000  -14.4752   0.0000   0.2252
  16.700   1.8162   0.01331   0.00953   0.0049  0.0058  1.0000  -14.6206   0.0000   0.2248
  16.800   1.8246   0.01347   0.00969   0.0052  0.0056  1.0000  -14.7661   0.0000   0.2244
  16.900   1.8329   0.01364   0.00986   0.0056  0.0055  1.0000  -14.9116   0.0000   0.2240
  17.000   1.8411   0.01381   0.01002   0.0059  0.0054  1.0000  -15.0571   0.0000   0.2237
  17.100   1.8493   0.01398   0.01019   0.0063  0.0053  1.0000  -15.2026   0.0000   0.2233
  17.200   1.8574   0.01415   0.01036   0.0067  0.0052  1.0000  -15.3481   0.0000   0.2229
  17.300   1.8654   0.01432   0.01054   0.0071  0.0051  1.0000  -15.4936   0.0000   0.2225
  17.400   1.8733   0.01449   0.01071   0.0075  0.0050  1.0000  -15.6391   0.0000   0.2220
  17.500   1.8811   0.01467   0.01089   0.0079  0.0049  1.0000  -15.7843   0.0000   0.2216
  17.600   1.8889   0.01484   0.01106   0.0083  0.0049  1.0000  -15.9297   0.0000   0.2212
  17.700   1.8966   0.01501   0.01123   0.0087  0.0048  1.0000  -16.0751   0.0000   0.2208
  17.800   1.9042   0.01518   0.01141   0.0092  0.0047  1.0000  -16.2204   0.0000   0.2204
  17.900   1.9117   0.01536   0.01158   0.0096  0.0046  1.0000  -16.3655   0.0000   0.2199
  18.000   1.9191   0.01553   0.01176   0.0101  0.0045  1.0000  -16.5103   0.0000   0.2195
  18.100   1.9262   0.01571   0.01194   0.0106  0.0044  1.0000  -16.6534   0.0000   0.2190
  18.200   1.9329   0.01588   0.01211   0.0112  0.0044  1.0000  -16.7942   0.0000   0.2185
  18.300   1.9393   0.01605   0.01229   0.0118  0.0043  1.0000  -16.9328   0.0000   0.2180
  18.400   1.9448   0.01623   0.01247   0.0126  0.0042  1.0000  -17.0639   0.0000   0.2174
  18.500   1.9494   0.01641   0.01266   0.0136  0.0042  1.0000  -17.1890   0.0000   0.2167
  18.600   1.9541   0.01660   0.01285   0.0145  0.0041  1.0000  -17.3143   0.0000   0.2160
  18.700   1.9592   0.01679   0.01305   0.0154  0.0040  1.0000  -17.4434   0.0000   0.2154
  18.800   1.9639   0.01700   0.01326   0.0162  0.0040  1.0000  -17.5702   0.0000   0.2148
  18.900   1.9686   0.01721   0.01348   0.0171  0.0039  1.0000  -17.6965   0.0000   0.2141
  19.000   1.9736   0.01742   0.01370   0.0178  0.0039  1.0000  -17.8261   0.0000   0.2136
  19.100   1.9783   0.01765   0.01394   0.0186  0.0038  1.0000  -17.9526   0.0000   0.2130
  19.200   1.9831   0.01789   0.01418   0.0193  0.0037  1.0000  -18.0810   0.0000   0.2124
  19.300   1.9881   0.01813   0.01443   0.0200  0.0037  1.0000  -18.2109   0.0000   0.2118
  19.400   1.9922   0.01839   0.01469   0.0208  0.0036  1.0000  -18.3340   0.0000   0.2112
  19.500   1.9964   0.01867   0.01498   0.0216  0.0035  1.0000  -18.4577   0.0000   0.2106
  19.600   2.0012   0.01894   0.01525   0.0222  0.0035  1.0000  -18.5865   0.0000   0.2101
  19.700   2.0057   0.01923   0.01555   0.0229  0.0034  1.0000  -18.7137   0.0000   0.2096
  19.800   2.0097   0.01954   0.01588   0.0236  0.0033  1.0000  -18.8356   0.0000   0.2090
  19.900   2.0142   0.01985   0.01619   0.0242  0.0033  1.0000  -18.9628   0.0000   0.2085
  20.000   2.0185   0.02016   0.01650   0.0248  0.0032  1.0000  -19.0889   0.0000   0.2080


