xflr5 v6.32

 Calculated polar for: NACA 0012

 1 1 Reynolds number fixed          Mach number fixed         

 xtrf =   1.000 (top)        1.000 (bottom)
 Mach =   0.000     Re =    10.000 e 6     Ncrit =   9.000

  alpha     CL        CD       CDp       Cm    Top Xtr Bot Xtr   Cpmin    Chinge    XCp    
 ------- -------- --------- --------- -------- ------- ------- -------- --------- ---------
 -15.000  -1.6190   0.01428   0.01004  -0.0068  1.0000  0.0068  -11.7910   0.0000   0.2268
 -14.900  -1.6100   0.01414   0.00990  -0.0065  1.0000  0.0068  -11.6549   0.0000   0.2271
 -14.800  -1.6009   0.01401   0.00976  -0.0062  1.0000  0.0068  -11.5191   0.0000   0.2274
 -14.700  -1.5918   0.01387   0.00962  -0.0060  1.0000  0.0068  -11.3836   0.0000   0.2277
 -14.600  -1.5826   0.01374   0.00948  -0.0058  1.0000  0.0068  -11.2484   0.0000   0.2281
 -14.500  -1.5734   0.01361   0.00934  -0.0055  1.0000  0.0068  -11.1135   0.0000   0.2284
 -14.400  -1.5641   0.01348   0.00921  -0.0053  1.0000  0.0068  -10.9790   0.0000   0.2287
 -14.300  -1.5548   0.01335   0.00908  -0.0051  1.0000  0.0068  -10.8450   0.0000   0.2290
 -14.200  -1.5454   0.01322   0.00895  -0.0048  1.0000  0.0068  -10.7113   0.0000   0.2293
 -14.100  -1.5360   0.01310   0.00882  -0.0046  1.0000  0.0068  -10.5780   0.0000   0.2296
 -14.000  -1.5266   0.01297   0.00869  -0.0044  1.0000  0.0068  -10.4454   0.0000   0.2299
 -13.900  -1.5171   0.01285   0.00856  -0.0042  1.0000  0.0068  -10.3131   0.0000   0.2302
 -13.800  -1.5075   0.01273   0.00844  -0.0040  1.0000  0.0068  -10.1811   0.0000   0.2305
 -13.700  -1.4979   0.01261   0.00832  -0.0038  1.0000  0.0068  -10.0497   0.0000   0.2308
 -13.600  -1.4883   0.01249   0.00820  -0.0036  1.0000  0.0068  -9.9188   0.0000   0.2311
 -13.500  -1.4787   0.01238   0.00808  -0.0034  1.0000  0.0069  -9.7883   0.0000   0.2313
 -13.400  -1.4690   0.01226   0.00796  -0.0032  1.0000  0.0069  -9.6585   0.0000   0.2316
 -13.300  -1.4593   0.01215   0.00784  -0.0031  1.0000  0.0069  -9.5291   0.0000   0.2319
 -13.200  -1.4495   0.01204   0.00773  -0.0029  1.0000  0.0069  -9.4004   0.0000   0.2322
 -13.100  -1.4397   0.01192   0.00762  -0.0027  1.0000  0.0069  -9.2722   0.0000   0.2325
 -13.000  -1.4299   0.01181   0.00750  -0.0025  1.0000  0.0069  -9.1446   0.0000   0.2327
 -12.900  -1.4201   0.01171   0.00739  -0.0023  1.0000  0.0069  -9.0176   0.0000   0.2330
 -12.800  -1.4103   0.01160   0.00729  -0.0022  1.0000  0.0069  -8.8913   0.0000   0.2333
 -12.700  -1.4004   0.01149   0.00718  -0.0020  1.0000  0.0069  -8.7656   0.0000   0.2336
 -12.600  -1.3911   0.01133   0.00701  -0.0017  1.0000  0.0078  -8.6498   0.0000   0.2339
 -12.500  -1.3814   0.01121   0.00689  -0.0015  1.0000  0.0083  -8.5282   0.0000   0.2342
 -12.400  -1.3718   0.01108   0.00677  -0.0013  1.0000  0.0088  -8.4068   0.0000   0.2345
 -12.300  -1.3621   0.01096   0.00666  -0.0011  1.0000  0.0092  -8.2861   0.0000   0.2348
 -12.200  -1.3526   0.01083   0.00653  -0.0008  1.0000  0.0095  -8.1659   0.0000   0.2352
 -12.100  -1.3431   0.01071   0.00641  -0.0006  1.0000  0.0098  -8.0504   0.0000   0.2355
 -12.000  -1.3337   0.01058   0.00629  -0.0003  1.0000  0.0102  -7.9470   0.0000   0.2359
 -11.900  -1.3243   0.01046   0.00617  -0.0000  1.0000  0.0105  -7.8442   0.0000   0.2362
 -11.800  -1.3150   0.01034   0.00606   0.0003  1.0000  0.0108  -7.7421   0.0000   0.2366
 -11.700  -1.3058   0.01023   0.00596   0.0006  1.0000  0.0110  -7.6408   0.0000   0.2370
 -11.600  -1.2967   0.01013   0.00586   0.0010  1.0000  0.0112  -7.5401   0.0000   0.2375
 -11.500  -1.2875   0.01003   0.00577   0.0013  1.0000  0.0114  -7.4397   0.0000   0.2379
 -11.400  -1.2784   0.00994   0.00568   0.0017  1.0000  0.0115  -7.3403   0.0000   0.2384
 -11.300  -1.2675   0.00985   0.00559   0.0017  0.9999  0.0116  -7.2329   0.0000   0.2385
 -11.200  -1.2559   0.00976   0.00550   0.0015  0.9997  0.0117  -7.1224   0.0000   0.2385
 -11.100  -1.2442   0.00967   0.00541   0.0013  0.9995  0.0118  -7.0126   0.0000   0.2385
 -11.000  -1.2325   0.00958   0.00533   0.0011  0.9993  0.0118  -6.9033   0.0000   0.2385
 -10.900  -1.2207   0.00949   0.00524   0.0010  0.9990  0.0119  -6.7947   0.0000   0.2385
 -10.800  -1.2089   0.00941   0.00516   0.0008  0.9987  0.0119  -6.6865   0.0000   0.2385
 -10.700  -1.1971   0.00933   0.00508   0.0006  0.9983  0.0119  -6.5790   0.0000   0.2385
 -10.600  -1.1853   0.00924   0.00500   0.0004  0.9980  0.0120  -6.4720   0.0000   0.2385
 -10.500  -1.1734   0.00916   0.00491   0.0001  0.9976  0.0120  -6.3650   0.0000   0.2384
 -10.400  -1.1615   0.00908   0.00484  -0.0001  0.9972  0.0120  -6.2592   0.0000   0.2384
 -10.300  -1.1496   0.00900   0.00476  -0.0003  0.9968  0.0120  -6.1540   0.0000   0.2383
 -10.200  -1.1376   0.00892   0.00468  -0.0005  0.9962  0.0121  -6.0495   0.0000   0.2382
 -10.100  -1.1256   0.00885   0.00461  -0.0008  0.9956  0.0121  -5.9454   0.0000   0.2382
 -10.000  -1.1135   0.00877   0.00453  -0.0010  0.9950  0.0121  -5.8419   0.0000   0.2381
  -9.900  -1.1014   0.00869   0.00446  -0.0013  0.9944  0.0121  -5.7390   0.0000   0.2379
  -9.800  -1.0892   0.00862   0.00439  -0.0016  0.9937  0.0121  -5.6365   0.0000   0.2378
  -9.700  -1.0769   0.00854   0.00432  -0.0018  0.9930  0.0121  -5.5345   0.0000   0.2377
  -9.600  -1.0662   0.00848   0.00425  -0.0018  0.9918  0.0121  -5.4394   0.0000   0.2378
  -9.500  -1.0557   0.00840   0.00418  -0.0017  0.9903  0.0125  -5.3474   0.0000   0.2381
  -9.400  -1.0451   0.00831   0.00410  -0.0016  0.9885  0.0135  -5.2563   0.0000   0.2383
  -9.300  -1.0344   0.00823   0.00402  -0.0015  0.9863  0.0145  -5.1648   0.0000   0.2384
  -9.200  -1.0238   0.00814   0.00394  -0.0014  0.9839  0.0153  -5.0739   0.0000   0.2386
  -9.100  -1.0133   0.00805   0.00386  -0.0013  0.9812  0.0160  -4.9841   0.0000   0.2388
  -9.000  -1.0028   0.00796   0.00377  -0.0012  0.9792  0.0167  -4.8948   0.0000   0.2391
  -8.900  -0.9922   0.00787   0.00370  -0.0011  0.9774  0.0172  -4.8060   0.0000   0.2393
  -8.800  -0.9818   0.00779   0.00362  -0.0009  0.9749  0.0177  -4.7184   0.0000   0.2395
  -8.700  -0.9713   0.00773   0.00355  -0.0008  0.9716  0.0181  -4.6308   0.0000   0.2398
  -8.600  -0.9610   0.00767   0.00349  -0.0006  0.9678  0.0183  -4.5442   0.0000   0.2401
  -8.500  -0.9506   0.00762   0.00343  -0.0004  0.9635  0.0184  -4.4579   0.0000   0.2404
  -8.400  -0.9397   0.00756   0.00337  -0.0004  0.9618  0.0186  -4.3701   0.0000   0.2405
  -8.300  -0.9288   0.00750   0.00332  -0.0003  0.9592  0.0186  -4.2832   0.0000   0.2407
  -8.200  -0.9180   0.00745   0.00326  -0.0003  0.9556  0.0187  -4.1975   0.0000   0.2409
  -8.100  -0.9074   0.00740   0.00321  -0.0001  0.9509  0.0188  -4.1130   0.0000   0.2411
  -8.000  -0.8968   0.00736   0.00315   0.0000  0.9452  0.0188  -4.0293   0.0000   0.2414
  -7.900  -0.8857   0.00731   0.00310   0.0000  0.9427  0.0188  -3.9445   0.0000   0.2415
  -7.800  -0.8747   0.00726   0.00304   0.0001  0.9396  0.0194  -3.8611   0.0000   0.2416
  -7.700  -0.8639   0.00720   0.00299   0.0001  0.9349  0.0203  -3.7789   0.0000   0.2418
  -7.600  -0.8532   0.00715   0.00293   0.0003  0.9289  0.0214  -3.6980   0.0000   0.2421
  -7.500  -0.8424   0.00710   0.00287   0.0003  0.9230  0.0224  -3.6172   0.0000   0.2423
  -7.400  -0.8315   0.00703   0.00281   0.0004  0.9200  0.0234  -3.5366   0.0000   0.2424
  -7.300  -0.8206   0.00696   0.00274   0.0004  0.9151  0.0243  -3.4571   0.0000   0.2426
  -7.200  -0.8099   0.00691   0.00268   0.0005  0.9084  0.0252  -3.3783   0.0000   0.2428
  -7.100  -0.7990   0.00686   0.00262   0.0006  0.9007  0.0258  -3.2995   0.0000   0.2430
  -7.000  -0.7879   0.00681   0.00257   0.0006  0.8976  0.0263  -3.2199   0.0000   0.2431
  -6.900  -0.7768   0.00677   0.00252   0.0006  0.8922  0.0265  -3.1420   0.0000   0.2433
  -6.800  -0.7658   0.00674   0.00247   0.0007  0.8842  0.0267  -3.0659   0.0000   0.2434
  -6.700  -0.7547   0.00671   0.00242   0.0007  0.8762  0.0269  -3.0006   0.0000   0.2436
  -6.600  -0.7435   0.00667   0.00238   0.0007  0.8726  0.0274  -2.9355   0.0000   0.2437
  -6.500  -0.7324   0.00663   0.00233   0.0007  0.8663  0.0287  -2.8714   0.0000   0.2438
  -6.400  -0.7214   0.00660   0.00229   0.0008  0.8569  0.0303  -2.8082   0.0000   0.2440
  -6.300  -0.7103   0.00655   0.00223   0.0008  0.8497  0.0318  -2.7453   0.0000   0.2441
  -6.200  -0.6993   0.00649   0.00218   0.0008  0.8446  0.0332  -2.6829   0.0000   0.2443
  -6.100  -0.6883   0.00645   0.00213   0.0009  0.8364  0.0345  -2.6211   0.0000   0.2444
  -6.000  -0.6772   0.00642   0.00208   0.0009  0.8261  0.0354  -2.5595   0.0000   0.2446
  -5.900  -0.6659   0.00638   0.00204   0.0009  0.8216  0.0360  -2.4978   0.0000   0.2446
  -5.800  -0.6547   0.00635   0.00200   0.0009  0.8144  0.0364  -2.4366   0.0000   0.2447
  -5.700  -0.6436   0.00633   0.00196   0.0009  0.8036  0.0390  -2.3767   0.0000   0.2449
  -5.600  -0.6325   0.00628   0.00191   0.0009  0.7960  0.0418  -2.3171   0.0000   0.2450
  -5.500  -0.6214   0.00622   0.00186   0.0009  0.7907  0.0439  -2.2581   0.0000   0.2451
  -5.400  -0.6103   0.00619   0.00182   0.0010  0.7817  0.0455  -2.1994   0.0000   0.2453
  -5.300  -0.5991   0.00617   0.00177   0.0010  0.7700  0.0464  -2.1402   0.0000   0.2454
  -5.200  -0.5877   0.00614   0.00174   0.0009  0.7655  0.0470  -2.0819   0.0000   0.2454
  -5.100  -0.5764   0.00612   0.00170   0.0009  0.7572  0.0483  -2.0244   0.0000   0.2455
  -5.000  -0.5653   0.00610   0.00167   0.0009  0.7454  0.0513  -1.9679   0.0000   0.2456
  -4.900  -0.5540   0.00605   0.00162   0.0009  0.7393  0.0542  -1.9117   0.0000   0.2457
  -4.800  -0.5429   0.00601   0.00158   0.0009  0.7332  0.0567  -1.8562   0.0000   0.2458
  -4.700  -0.5317   0.00599   0.00155   0.0009  0.7225  0.0583  -1.8011   0.0000   0.2459
  -4.600  -0.5204   0.00597   0.00151   0.0009  0.7120  0.0591  -1.7487   0.0000   0.2460
  -4.500  -0.5090   0.00595   0.00148   0.0009  0.7071  0.0617  -1.7023   0.0000   0.2461
  -4.400  -0.4978   0.00592   0.00145   0.0009  0.6987  0.0656  -1.6567   0.0000   0.2462
  -4.300  -0.4867   0.00588   0.00141   0.0009  0.6865  0.0691  -1.6119   0.0000   0.2463
  -4.200  -0.4754   0.00584   0.00137   0.0009  0.6810  0.0713  -1.5666   0.0000   0.2463
  -4.100  -0.4640   0.00583   0.00135   0.0009  0.6739  0.0725  -1.5217   0.0000   0.2464
  -4.000  -0.4529   0.00580   0.00132   0.0009  0.6626  0.0790  -1.4778   0.0000   0.2465
  -3.900  -0.4418   0.00574   0.00127   0.0009  0.6534  0.0849  -1.4345   0.0000   0.2467
  -3.800  -0.4304   0.00571   0.00124   0.0009  0.6489  0.0870  -1.3906   0.0000   0.2467
  -3.700  -0.4191   0.00570   0.00122   0.0008  0.6405  0.0919  -1.3473   0.0000   0.2468
  -3.600  -0.4079   0.00567   0.00118   0.0009  0.6278  0.0967  -1.3043   0.0000   0.2469
  -3.500  -0.3966   0.00563   0.00114   0.0008  0.6223  0.1007  -1.2618   0.0000   0.2469
  -3.400  -0.3852   0.00561   0.00112   0.0008  0.6156  0.1025  -1.2204   0.0000   0.2470
  -3.300  -0.3739   0.00561   0.00110   0.0008  0.6057  0.1073  -1.1847   0.0000   0.2470
  -3.200  -0.3627   0.00557   0.00107   0.0008  0.5951  0.1133  -1.1495   0.0000   0.2471
  -3.100  -0.3513   0.00553   0.00104   0.0008  0.5910  0.1180  -1.1143   0.0000   0.2472
  -3.000  -0.3400   0.00551   0.00102   0.0007  0.5828  0.1230  -1.0793   0.0000   0.2472
  -2.900  -0.3290   0.00547   0.00099   0.0008  0.5705  0.1331  -1.0454   0.0000   0.2474
  -2.800  -0.3176   0.00544   0.00096   0.0007  0.5643  0.1371  -1.0108   0.0000   0.2474
  -2.700  -0.3062   0.00542   0.00094   0.0007  0.5591  0.1430  -0.9765   0.0000   0.2474
  -2.600  -0.2950   0.00539   0.00092   0.0007  0.5498  0.1500  -0.9440   0.0000   0.2476
  -2.500  -0.2837   0.00538   0.00090   0.0007  0.5374  0.1546  -0.9150   0.0000   0.2476
  -2.400  -0.2722   0.00536   0.00088   0.0006  0.5335  0.1576  -0.8857   0.0000   0.2476
  -2.300  -0.2610   0.00531   0.00086   0.0006  0.5270  0.1698  -0.8574   0.0000   0.2477
  -2.200  -0.2498   0.00530   0.00084   0.0006  0.5162  0.1759  -0.8291   0.0000   0.2478
  -2.100  -0.2384   0.00528   0.00082   0.0006  0.5070  0.1838  -0.8007   0.0000   0.2478
  -2.000  -0.2271   0.00524   0.00080   0.0006  0.5027  0.1916  -0.7753   0.0000   0.2479
  -1.900  -0.2158   0.00523   0.00079   0.0005  0.4940  0.1958  -0.7507   0.0000   0.2479
  -1.800  -0.2043   0.00525   0.00078   0.0005  0.4823  0.1985  -0.7262   0.0000   0.2479
  -1.700  -0.1930   0.00520   0.00075   0.0005  0.4770  0.2105  -0.7022   0.0000   0.2480
  -1.600  -0.1817   0.00517   0.00074   0.0005  0.4713  0.2182  -0.6794   0.0000   0.2480
  -1.500  -0.1704   0.00517   0.00073   0.0004  0.4613  0.2261  -0.6583   0.0000   0.2481
  -1.400  -0.1592   0.00514   0.00071   0.0004  0.4503  0.2354  -0.6374   0.0000   0.2482
  -1.300  -0.1477   0.00512   0.00070   0.0004  0.4469  0.2400  -0.6163   0.0000   0.2481
  -1.200  -0.1362   0.00513   0.00070   0.0003  0.4394  0.2439  -0.5972   0.0000   0.2480
  -1.100  -0.1251   0.00511   0.00069   0.0003  0.4276  0.2571  -0.5790   0.0000   0.2483
  -1.000  -0.1137   0.00509   0.00067   0.0003  0.4209  0.2643  -0.5605   0.0000   0.2483
  -0.900  -0.1022   0.00508   0.00067   0.0003  0.4158  0.2700  -0.5433   0.0000   0.2481
  -0.800  -0.0909   0.00508   0.00066   0.0002  0.4066  0.2795  -0.5269   0.0000   0.2483
  -0.700  -0.0796   0.00507   0.00065   0.0002  0.3948  0.2873  -0.5106   0.0000   0.2484
  -0.600  -0.0681   0.00506   0.00065   0.0002  0.3913  0.2921  -0.4952   0.0000   0.2481
  -0.500  -0.0569   0.00504   0.00064   0.0002  0.3836  0.3049  -0.4806   0.0000   0.2484
  -0.400  -0.0456   0.00505   0.00064   0.0001  0.3724  0.3121  -0.4660   0.0000   0.2487
  -0.300  -0.0340   0.00505   0.00063   0.0001  0.3661  0.3153  -0.4522   0.0000   0.2481
  -0.200  -0.0226   0.00504   0.00063   0.0000  0.3602  0.3267  -0.4388   0.0000   0.2478
  -0.100  -0.0115   0.00504   0.00063   0.0000  0.3495  0.3367  -0.4257   0.0000   0.2500
   0.000  -0.0000   0.00504   0.00063   0.0000  0.3408  0.3408  -0.4133   0.0000   0.3989
   0.100   0.0115   0.00504   0.00063  -0.0000  0.3367  0.3495  -0.4257   0.0000   0.2500
   0.200   0.0226   0.00504   0.00063  -0.0000  0.3267  0.3602  -0.4388   0.0000   0.2478
   0.300   0.0340   0.00505   0.00063  -0.0001  0.3153  0.3661  -0.4522   0.0000   0.2481
   0.400   0.0456   0.00505   0.00064  -0.0001  0.3121  0.3724  -0.4660   0.0000   0.2487
   0.500   0.0569   0.00504   0.00064  -0.0002  0.3049  0.3836  -0.4806   0.0000   0.2484
   0.600   0.0681   0.00506   0.00065  -0.0002  0.2921  0.3913  -0.4952   0.0000   0.2481
   0.700   0.0796   0.00507   0.00065  -0.0002  0.2873  0.3948  -0.5106   0.0000   0.2484
   0.800   0.0909   0.00508   0.00066  -0.0002  0.2795  0.4066  -0.5269   0.0000   0.2483
   0.900   0.1022   0.00508   0.00067  -0.0003  0.2700  0.4158  -0.5433   0.0000   0.2481
   1.000   0.1137   0.00509   0.00067  -0.0003  0.2643  0.4209  -0.5605   0.0000   0.2483
   1.100   0.1251   0.00511   0.00069  -0.0003  0.2571  0.4276  -0.5790   0.0000   0.2483
   1.200   0.1362   0.00513   0.00070  -0.0003  0.2439  0.4394  -0.5972   0.0000   0.2481
   1.300   0.1477   0.00512   0.00070  -0.0004  0.2400  0.4469  -0.6163   0.0000   0.2481
   1.400   0.1592   0.00514   0.00071  -0.0004  0.2354  0.4503  -0.6374   0.0000   0.2482
   1.500   0.1704   0.00517   0.00073  -0.0004  0.2261  0.4613  -0.6583   0.0000   0.2481
   1.600   0.1817   0.00517   0.00074  -0.0005  0.2182  0.4713  -0.6794   0.0000   0.2480
   1.700   0.1930   0.00520   0.00075  -0.0005  0.2105  0.4770  -0.7022   0.0000   0.2480
   1.800   0.2044   0.00525   0.00078  -0.0005  0.1985  0.4824  -0.7263   0.0000   0.2479
   1.900   0.2158   0.00523   0.00079  -0.0005  0.1958  0.4940  -0.7507   0.0000   0.2479
   2.000   0.2271   0.00524   0.00080  -0.0006  0.1916  0.5027  -0.7753   0.0000   0.2479
   2.100   0.2384   0.00528   0.00082  -0.0006  0.1838  0.5070  -0.8007   0.0000   0.2478
   2.200   0.2498   0.00530   0.00084  -0.0006  0.1759  0.5162  -0.8291   0.0000   0.2478
   2.300   0.2610   0.00531   0.00086  -0.0006  0.1698  0.5270  -0.8574   0.0000   0.2477
   2.400   0.2722   0.00536   0.00088  -0.0006  0.1576  0.5335  -0.8857   0.0000   0.2476
   2.500   0.2837   0.00538   0.00090  -0.0007  0.1546  0.5374  -0.9150   0.0000   0.2476
   2.600   0.2950   0.00539   0.00092  -0.0007  0.1500  0.5498  -0.9440   0.0000   0.2476
   2.700   0.3062   0.00542   0.00094  -0.0007  0.1430  0.5591  -0.9765   0.0000   0.2474
   2.800   0.3176   0.00544   0.00096  -0.0007  0.1371  0.5643  -1.0108   0.0000   0.2474
   2.900   0.3290   0.00547   0.00099  -0.0008  0.1331  0.5706  -1.0454   0.0000   0.2474
   3.000   0.3400   0.00551   0.00102  -0.0007  0.1230  0.5828  -1.0793   0.0000   0.2472
   3.100   0.3514   0.00553   0.00104  -0.0008  0.1180  0.5910  -1.1143   0.0000   0.2472
   3.200   0.3627   0.00557   0.00107  -0.0008  0.1133  0.5951  -1.1495   0.0000   0.2471
   3.300   0.3739   0.00561   0.00110  -0.0008  0.1072  0.6057  -1.1847   0.0000   0.2470
   3.400   0.3852   0.00561   0.00112  -0.0008  0.1025  0.6156  -1.2204   0.0000   0.2470
   3.500   0.3966   0.00563   0.00114  -0.0008  0.1007  0.6223  -1.2618   0.0000   0.2470
   3.600   0.4079   0.00567   0.00118  -0.0009  0.0967  0.6279  -1.3043   0.0000   0.2469
   3.700   0.4191   0.00570   0.00122  -0.0009  0.0919  0.6405  -1.3473   0.0000   0.2468
   3.800   0.4304   0.00571   0.00124  -0.0009  0.0870  0.6489  -1.3906   0.0000   0.2467
   3.900   0.4418   0.00574   0.00127  -0.0009  0.0849  0.6534  -1.4345   0.0000   0.2467
   4.000   0.4529   0.00580   0.00132  -0.0009  0.0790  0.6626  -1.4779   0.0000   0.2465
   4.100   0.4640   0.00583   0.00135  -0.0009  0.0725  0.6739  -1.5217   0.0000   0.2464
   4.200   0.4754   0.00584   0.00137  -0.0009  0.0713  0.6810  -1.5667   0.0000   0.2464
   4.300   0.4867   0.00588   0.00141  -0.0009  0.0691  0.6866  -1.6119   0.0000   0.2463
   4.400   0.4978   0.00592   0.00145  -0.0009  0.0656  0.6987  -1.6568   0.0000   0.2462
   4.500   0.5090   0.00595   0.00148  -0.0009  0.0617  0.7071  -1.7023   0.0000   0.2461
   4.600   0.5204   0.00597   0.00151  -0.0009  0.0591  0.7120  -1.7488   0.0000   0.2460
   4.700   0.5317   0.00599   0.00155  -0.0010  0.0583  0.7225  -1.8012   0.0000   0.2460
   4.800   0.5429   0.00601   0.00158  -0.0009  0.0567  0.7332  -1.8563   0.0000   0.2458
   4.900   0.5541   0.00605   0.00162  -0.0009  0.0542  0.7393  -1.9118   0.0000   0.2457
   5.000   0.5653   0.00610   0.00167  -0.0009  0.0513  0.7454  -1.9679   0.0000   0.2456
   5.100   0.5765   0.00612   0.00170  -0.0009  0.0483  0.7572  -2.0245   0.0000   0.2455
   5.200   0.5877   0.00614   0.00174  -0.0009  0.0470  0.7655  -2.0820   0.0000   0.2454
   5.400   0.6103   0.00619   0.00182  -0.0010  0.0455  0.7817  -2.1995   0.0000   0.2453
   5.500   0.6214   0.00622   0.00186  -0.0009  0.0439  0.7907  -2.2582   0.0000   0.2451
   5.600   0.6325   0.00628   0.00191  -0.0009  0.0418  0.7960  -2.3173   0.0000   0.2450
   5.700   0.6437   0.00633   0.00196  -0.0009  0.0390  0.8036  -2.3768   0.0000   0.2449
   5.800   0.6547   0.00635   0.00200  -0.0009  0.0364  0.8144  -2.4368   0.0000   0.2448
   5.900   0.6660   0.00638   0.00204  -0.0009  0.0360  0.8216  -2.4979   0.0000   0.2447
   6.000   0.6773   0.00642   0.00208  -0.0009  0.0354  0.8261  -2.5597   0.0000   0.2446
   6.100   0.6883   0.00645   0.00213  -0.0009  0.0345  0.8364  -2.6213   0.0000   0.2444
   6.200   0.6993   0.00649   0.00218  -0.0008  0.0332  0.8446  -2.6831   0.0000   0.2443
   6.300   0.7104   0.00655   0.00223  -0.0008  0.0318  0.8497  -2.7455   0.0000   0.2441
   6.400   0.7215   0.00660   0.00229  -0.0008  0.0303  0.8569  -2.8084   0.0000   0.2440
   6.500   0.7324   0.00663   0.00233  -0.0007  0.0287  0.8663  -2.8716   0.0000   0.2438
   6.600   0.7435   0.00667   0.00238  -0.0007  0.0274  0.8726  -2.9357   0.0000   0.2437
   6.700   0.7548   0.00671   0.00242  -0.0007  0.0269  0.8762  -3.0008   0.0000   0.2436
   6.800   0.7659   0.00674   0.00247  -0.0007  0.0267  0.8843  -3.0661   0.0000   0.2435
   6.900   0.7769   0.00677   0.00252  -0.0007  0.0265  0.8922  -3.1422   0.0000   0.2433
   7.000   0.7880   0.00681   0.00257  -0.0006  0.0263  0.8976  -3.2202   0.0000   0.2432
   7.100   0.7991   0.00686   0.00262  -0.0006  0.0258  0.9007  -3.2998   0.0000   0.2430
   7.200   0.8100   0.00691   0.00268  -0.0006  0.0252  0.9084  -3.3786   0.0000   0.2429
   7.300   0.8207   0.00696   0.00274  -0.0005  0.0243  0.9151  -3.4573   0.0000   0.2426
   7.400   0.8315   0.00703   0.00281  -0.0004  0.0234  0.9200  -3.5369   0.0000   0.2425
   7.500   0.8425   0.00710   0.00287  -0.0004  0.0224  0.9230  -3.6175   0.0000   0.2423
   7.600   0.8533   0.00716   0.00293  -0.0003  0.0214  0.9288  -3.6983   0.0000   0.2421
   7.700   0.8640   0.00720   0.00299  -0.0002  0.0203  0.9349  -3.7792   0.0000   0.2419
   7.800   0.8748   0.00726   0.00304  -0.0001  0.0194  0.9396  -3.8614   0.0000   0.2417
   7.900   0.8858   0.00731   0.00310  -0.0000  0.0188  0.9427  -3.9449   0.0000   0.2415
   8.000   0.8969   0.00736   0.00315  -0.0000  0.0188  0.9452  -4.0296   0.0000   0.2414
   8.100   0.9075   0.00740   0.00321   0.0001  0.0188  0.9509  -4.1134   0.0000   0.2411
   8.200   0.9181   0.00745   0.00326   0.0002  0.0187  0.9555  -4.1978   0.0000   0.2409
   8.300   0.9289   0.00750   0.00332   0.0003  0.0186  0.9592  -4.2836   0.0000   0.2407
   8.400   0.9398   0.00756   0.00337   0.0004  0.0186  0.9618  -4.3705   0.0000   0.2405
   8.500   0.9507   0.00762   0.00343   0.0004  0.0184  0.9635  -4.4583   0.0000   0.2404
   8.600   0.9611   0.00767   0.00349   0.0006  0.0183  0.9678  -4.5446   0.0000   0.2401
   8.700   0.9715   0.00773   0.00355   0.0008  0.0181  0.9716  -4.6312   0.0000   0.2398
   8.800   0.9819   0.00780   0.00362   0.0009  0.0177  0.9748  -4.7188   0.0000   0.2395
   8.900   0.9924   0.00787   0.00370   0.0010  0.0172  0.9774  -4.8064   0.0000   0.2393
   9.000   1.0029   0.00796   0.00377   0.0011  0.0167  0.9792  -4.8953   0.0000   0.2391
   9.100   1.0134   0.00805   0.00386   0.0013  0.0160  0.9812  -4.9846   0.0000   0.2389
   9.200   1.0239   0.00814   0.00394   0.0014  0.0153  0.9839  -5.0744   0.0000   0.2386
   9.300   1.0345   0.00823   0.00402   0.0015  0.0145  0.9863  -5.1653   0.0000   0.2385
   9.400   1.0452   0.00832   0.00410   0.0015  0.0135  0.9885  -5.2568   0.0000   0.2383
   9.500   1.0558   0.00840   0.00418   0.0016  0.0125  0.9903  -5.3479   0.0000   0.2381
   9.600   1.0663   0.00848   0.00425   0.0018  0.0121  0.9918  -5.4399   0.0000   0.2378
   9.700   1.0771   0.00854   0.00432   0.0018  0.0121  0.9930  -5.5350   0.0000   0.2377
   9.800   1.0893   0.00862   0.00439   0.0015  0.0121  0.9937  -5.6370   0.0000   0.2378
   9.900   1.1015   0.00869   0.00446   0.0013  0.0121  0.9944  -5.7395   0.0000   0.2380
  10.000   1.1136   0.00877   0.00453   0.0010  0.0121  0.9950  -5.8425   0.0000   0.2381
  10.100   1.1257   0.00885   0.00461   0.0008  0.0121  0.9956  -5.9460   0.0000   0.2382
  10.200   1.1377   0.00892   0.00468   0.0005  0.0121  0.9962  -6.0501   0.0000   0.2383
  10.300   1.1497   0.00900   0.00476   0.0003  0.0120  0.9967  -6.1547   0.0000   0.2383
  10.400   1.1616   0.00908   0.00484   0.0001  0.0120  0.9972  -6.2598   0.0000   0.2384
  10.500   1.1736   0.00916   0.00491  -0.0002  0.0120  0.9976  -6.3656   0.0000   0.2384
  10.600   1.1854   0.00924   0.00500  -0.0004  0.0120  0.9980  -6.4727   0.0000   0.2385
  10.700   1.1973   0.00933   0.00508  -0.0006  0.0119  0.9984  -6.5797   0.0000   0.2385
  10.800   1.2091   0.00941   0.00516  -0.0008  0.0119  0.9987  -6.6872   0.0000   0.2385
  10.900   1.2209   0.00949   0.00524  -0.0010  0.0119  0.9990  -6.7954   0.0000   0.2386
  11.000   1.2326   0.00958   0.00533  -0.0012  0.0118  0.9993  -6.9040   0.0000   0.2386
  11.100   1.2443   0.00967   0.00541  -0.0014  0.0118  0.9995  -7.0133   0.0000   0.2386
  11.200   1.2560   0.00976   0.00550  -0.0016  0.0117  0.9997  -7.1232   0.0000   0.2385
  11.300   1.2677   0.00985   0.00559  -0.0017  0.0116  0.9999  -7.2337   0.0000   0.2385
  11.400   1.2783   0.00994   0.00568  -0.0017  0.0115  1.0000  -7.3397   0.0000   0.2383
  11.500   1.2874   0.01003   0.00577  -0.0013  0.0114  1.0000  -7.4393   0.0000   0.2379
  11.600   1.2966   0.01013   0.00586  -0.0010  0.0112  1.0000  -7.5397   0.0000   0.2375
  11.700   1.3058   0.01023   0.00596  -0.0006  0.0110  1.0000  -7.6406   0.0000   0.2370
  11.800   1.3150   0.01034   0.00606  -0.0003  0.0108  1.0000  -7.7421   0.0000   0.2366
  11.900   1.3243   0.01046   0.00617   0.0000  0.0105  1.0000  -7.8444   0.0000   0.2362
  12.000   1.3337   0.01058   0.00629   0.0003  0.0102  1.0000  -7.9473   0.0000   0.2359
  12.100   1.3432   0.01071   0.00641   0.0006  0.0098  1.0000  -8.0508   0.0000   0.2355
  12.200   1.3527   0.01083   0.00653   0.0008  0.0095  1.0000  -8.1665   0.0000   0.2352
  12.300   1.3623   0.01096   0.00666   0.0010  0.0092  1.0000  -8.2868   0.0000   0.2349
  12.400   1.3719   0.01108   0.00677   0.0013  0.0088  1.0000  -8.4077   0.0000   0.2346
  12.500   1.3816   0.01121   0.00689   0.0015  0.0083  1.0000  -8.5292   0.0000   0.2343
  12.600   1.3913   0.01133   0.00701   0.0017  0.0078  1.0000  -8.6508   0.0000   0.2339
  12.700   1.4006   0.01149   0.00718   0.0020  0.0069  1.0000  -8.7667   0.0000   0.2336
  12.800   1.4105   0.01160   0.00728   0.0021  0.0069  1.0000  -8.8925   0.0000   0.2333
  12.900   1.4203   0.01171   0.00739   0.0023  0.0069  1.0000  -9.0189   0.0000   0.2330
  13.000   1.4302   0.01181   0.00750   0.0025  0.0069  1.0000  -9.1459   0.0000   0.2328
  13.100   1.4400   0.01192   0.00762   0.0026  0.0069  1.0000  -9.2736   0.0000   0.2325
  13.200   1.4498   0.01204   0.00773   0.0028  0.0069  1.0000  -9.4018   0.0000   0.2322
  13.300   1.4595   0.01215   0.00784   0.0030  0.0069  1.0000  -9.5307   0.0000   0.2319
  13.400   1.4692   0.01226   0.00796   0.0032  0.0069  1.0000  -9.6601   0.0000   0.2317
  13.500   1.4789   0.01238   0.00808   0.0034  0.0069  1.0000  -9.7900   0.0000   0.2314
  13.600   1.4886   0.01249   0.00820   0.0036  0.0068  1.0000  -9.9205   0.0000   0.2311
  13.700   1.4982   0.01261   0.00832   0.0037  0.0068  1.0000  -10.0515   0.0000   0.2308
  13.800   1.5078   0.01273   0.00844   0.0039  0.0068  1.0000  -10.1831   0.0000   0.2305
  13.900   1.5174   0.01285   0.00856   0.0041  0.0068  1.0000  -10.3151   0.0000   0.2302
  14.000   1.5269   0.01297   0.00869   0.0043  0.0068  1.0000  -10.4475   0.0000   0.2299
  14.100   1.5364   0.01310   0.00882   0.0045  0.0068  1.0000  -10.5802   0.0000   0.2296
  14.200   1.5458   0.01322   0.00895   0.0048  0.0068  1.0000  -10.7135   0.0000   0.2293
  14.300   1.5552   0.01335   0.00908   0.0050  0.0068  1.0000  -10.8473   0.0000   0.2290
  14.400   1.5645   0.01348   0.00921   0.0052  0.0068  1.0000  -10.9815   0.0000   0.2287
  14.500   1.5738   0.01361   0.00934   0.0054  0.0068  1.0000  -11.1161   0.0000   0.2284
  14.600   1.5830   0.01374   0.00948   0.0057  0.0068  1.0000  -11.2510   0.0000   0.2281
  14.700   1.5922   0.01387   0.00962   0.0059  0.0068  1.0000  -11.3863   0.0000   0.2278
  14.800   1.6013   0.01401   0.00976   0.0062  0.0068  1.0000  -11.5219   0.0000   0.2275
  14.900   1.6104   0.01414   0.00990   0.0064  0.0068  1.0000  -11.6579   0.0000   0.2272
  15.000   1.6194   0.01428   0.01004   0.0067  0.0068  1.0000  -11.7941   0.0000   0.2268
  15.100   1.6284   0.01442   0.01018   0.0069  0.0068  1.0000  -11.9305   0.0000   0.2265
  15.200   1.6372   0.01457   0.01033   0.0072  0.0068  1.0000  -12.0672   0.0000   0.2262
  15.300   1.6461   0.01471   0.01048   0.0075  0.0068  1.0000  -12.2041   0.0000   0.2258
  15.400   1.6548   0.01486   0.01063   0.0078  0.0068  1.0000  -12.3412   0.0000   0.2255
  15.500   1.6635   0.01500   0.01079   0.0081  0.0068  1.0000  -12.4784   0.0000   0.2251
  15.600   1.6721   0.01515   0.01094   0.0084  0.0068  1.0000  -12.6157   0.0000   0.2248
  15.700   1.6806   0.01531   0.01110   0.0087  0.0068  1.0000  -12.7531   0.0000   0.2244
  15.800   1.6890   0.01546   0.01126   0.0091  0.0068  1.0000  -12.8905   0.0000   0.2241
  15.900   1.6974   0.01562   0.01143   0.0094  0.0068  1.0000  -13.0281   0.0000   0.2237
  16.000   1.7056   0.01578   0.01159   0.0098  0.0067  1.0000  -13.1655   0.0000   0.2233
  16.100   1.7138   0.01594   0.01176   0.0101  0.0067  1.0000  -13.3028   0.0000   0.2229
  16.200   1.7219   0.01610   0.01193   0.0105  0.0067  1.0000  -13.4400   0.0000   0.2225
  16.300   1.7298   0.01627   0.01210   0.0109  0.0067  1.0000  -13.5769   0.0000   0.2221
  16.400   1.7376   0.01644   0.01228   0.0113  0.0067  1.0000  -13.7136   0.0000   0.2217
  16.500   1.7454   0.01661   0.01246   0.0117  0.0067  1.0000  -13.8500   0.0000   0.2213
  16.600   1.7529   0.01679   0.01264   0.0121  0.0067  1.0000  -13.9858   0.0000   0.2209
  16.700   1.7602   0.01696   0.01282   0.0126  0.0067  1.0000  -14.1201   0.0000   0.2204
  16.800   1.7672   0.01714   0.01301   0.0132  0.0067  1.0000  -14.2531   0.0000   0.2200
  16.900   1.7736   0.01732   0.01320   0.0138  0.0067  1.0000  -14.3817   0.0000   0.2194
  17.000   1.7794   0.01750   0.01339   0.0146  0.0067  1.0000  -14.5063   0.0000   0.2188
  17.100   1.7848   0.01769   0.01359   0.0154  0.0067  1.0000  -14.6282   0.0000   0.2182
  17.200   1.7902   0.01789   0.01380   0.0162  0.0067  1.0000  -14.7505   0.0000   0.2176
  17.300   1.7956   0.01809   0.01401   0.0169  0.0067  1.0000  -14.8736   0.0000   0.2170
  17.400   1.8009   0.01831   0.01424   0.0177  0.0067  1.0000  -14.9955   0.0000   0.2164
  17.500   1.8061   0.01853   0.01447   0.0184  0.0067  1.0000  -15.1177   0.0000   0.2158
  17.600   1.8114   0.01876   0.01471   0.0191  0.0067  1.0000  -15.2398   0.0000   0.2152
  17.700   1.8164   0.01900   0.01496   0.0199  0.0067  1.0000  -15.3609   0.0000   0.2146
  17.800   1.8216   0.01924   0.01522   0.0205  0.0066  1.0000  -15.4837   0.0000   0.2141
  17.900   1.8267   0.01950   0.01548   0.0212  0.0066  1.0000  -15.6061   0.0000   0.2135
  18.000   1.8313   0.01977   0.01577   0.0219  0.0066  1.0000  -15.7242   0.0000   0.2130
  18.100   1.8360   0.02005   0.01606   0.0226  0.0066  1.0000  -15.8438   0.0000   0.2124
  18.200   1.8409   0.02033   0.01635   0.0232  0.0066  1.0000  -15.9653   0.0000   0.2119
  18.300   1.8454   0.02064   0.01668   0.0238  0.0066  1.0000  -16.0832   0.0000   0.2114
  18.400   1.8499   0.02096   0.01701   0.0244  0.0066  1.0000  -16.2017   0.0000   0.2108
  18.500   1.8546   0.02128   0.01734   0.0250  0.0066  1.0000  -16.3226   0.0000   0.2104
  18.600   1.8587   0.02162   0.01770   0.0256  0.0066  1.0000  -16.4379   0.0000   0.2098
  18.700   1.8625   0.02199   0.01808   0.0262  0.0066  1.0000  -16.5510   0.0000   0.2093
  18.800   1.8667   0.02235   0.01845   0.0268  0.0066  1.0000  -16.6680   0.0000   0.2088
  18.900   1.8706   0.02274   0.01886   0.0273  0.0066  1.0000  -16.7826   0.0000   0.2083
  19.000   1.8741   0.02316   0.01929   0.0279  0.0065  1.0000  -16.8939   0.0000   0.2078
  19.100   1.8781   0.02358   0.01972   0.0283  0.0065  1.0000  -17.0093   0.0000   0.2074
  19.200   1.8819   0.02401   0.02017   0.0288  0.0065  1.0000  -17.1231   0.0000   0.2069
  19.300   1.8850   0.02451   0.02068   0.0292  0.0065  1.0000  -17.2307   0.0000   0.2065
  19.400   1.8885   0.02498   0.02117   0.0296  0.0065  1.0000  -17.3428   0.0000   0.2061
  19.500   1.8917   0.02547   0.02168   0.0301  0.0065  1.0000  -17.4519   0.0000   0.2056
  19.600   1.8939   0.02604   0.02226   0.0305  0.0065  1.0000  -17.5519   0.0000   0.2052
  19.700   1.8969   0.02658   0.02282   0.0309  0.0065  1.0000  -17.6588   0.0000   0.2048
  19.800   1.8996   0.02715   0.02340   0.0312  0.0065  1.0000  -17.7639   0.0000   0.2044
  19.900   1.9015   0.02781   0.02408   0.0315  0.0064  1.0000  -17.8609   0.0000   0.2040
  20.000   1.9042   0.02842   0.02471   0.0318  0.0064  1.0000  -17.9655   0.0000   0.2036


