xflr5 v6.32

 Calculated polar for: NACA 0012

 1 1 Reynolds number fixed          Mach number fixed         

 xtrf =   1.000 (top)        1.000 (bottom)
 Mach =   0.000     Re =     0.200 e 6     Ncrit =   9.000

  alpha     CL        CD       CDp       Cm    Top Xtr Bot Xtr   Cpmin    Chinge    XCp    
 ------- -------- --------- --------- -------- ------- ------- -------- --------- ---------
 -15.000  -0.6970   0.16948   0.16554   0.0228  1.0000  0.0606  -2.0782   0.0000   0.2671
 -14.900  -0.6921   0.16839   0.16444   0.0231  1.0000  0.0609  -2.0369   0.0000   0.2678
 -14.800  -0.6875   0.16732   0.16337   0.0232  1.0000  0.0613  -1.9987   0.0000   0.2684
 -14.700  -0.6831   0.16623   0.16227   0.0233  1.0000  0.0617  -1.9646   0.0000   0.2689
 -14.600  -0.6791   0.16508   0.16112   0.0232  1.0000  0.0622  -1.9351   0.0000   0.2691
 -14.500  -0.6755   0.16387   0.15991   0.0231  1.0000  0.0627  -1.9105   0.0000   0.2692
 -14.400  -0.6725   0.16259   0.15863   0.0228  1.0000  0.0634  -1.8918   0.0000   0.2691
 -14.300  -0.6700   0.16123   0.15727   0.0224  1.0000  0.0640  -1.8786   0.0000   0.2687
 -14.200  -0.6680   0.15978   0.15582   0.0219  1.0000  0.0647  -1.8707   0.0000   0.2682
 -14.100  -0.6666   0.15823   0.15427   0.0213  1.0000  0.0656  -1.8684   0.0000   0.2675
 -14.000  -0.6658   0.15657   0.15262   0.0206  1.0000  0.0665  -1.8722   0.0000   0.2665
 -13.900  -0.6657   0.15477   0.15082   0.0197  1.0000  0.0675  -1.8836   0.0000   0.2653
 -13.800  -0.6668   0.15272   0.14877   0.0185  1.0000  0.0687  -1.9085   0.0000   0.2636
 -13.700  -0.6867   0.14776   0.14385   0.0119  1.0000  0.0720  -2.1363   0.0000   0.2531
 -13.600  -0.6913   0.14498   0.14109   0.0098  1.0000  0.0722  -2.2001   0.0000   0.2499
 -13.500  -0.6939   0.14239   0.13850   0.0082  1.0000  0.0724  -2.2448   0.0000   0.2477
 -13.400  -0.6961   0.13974   0.13585   0.0068  1.0000  0.0724  -2.2921   0.0000   0.2458
 -13.300  -0.6983   0.13703   0.13315   0.0056  1.0000  0.0724  -2.3371   0.0000   0.2440
 -13.200  -0.7003   0.13430   0.13042   0.0044  1.0000  0.0725  -2.3803   0.0000   0.2423
 -13.100  -0.7023   0.13154   0.12767   0.0032  1.0000  0.0724  -2.4218   0.0000   0.2407
 -13.000  -0.7040   0.12884   0.12497   0.0023  1.0000  0.0724  -2.4583   0.0000   0.2394
 -12.800  -1.0431   0.05461   0.04930  -0.0370  1.0000  0.0372  -5.5425   0.0000   0.1998
 -12.700  -1.0502   0.05299   0.04758  -0.0367  1.0000  0.0373  -5.5583   0.0000   0.2005
 -12.600  -1.0565   0.05146   0.04597  -0.0363  1.0000  0.0374  -5.5685   0.0000   0.2013
 -12.500  -1.0619   0.05004   0.04446  -0.0357  1.0000  0.0376  -5.5719   0.0000   0.2022
 -12.400  -1.0663   0.04874   0.04308  -0.0350  1.0000  0.0377  -5.5680   0.0000   0.2031
 -12.300  -1.0697   0.04755   0.04182  -0.0342  1.0000  0.0379  -5.5560   0.0000   0.2041
 -12.200  -1.0720   0.04648   0.04068  -0.0334  1.0000  0.0381  -5.5367   0.0000   0.2051
 -12.100  -1.0736   0.04551   0.03965  -0.0325  1.0000  0.0384  -5.5112   0.0000   0.2061
 -12.000  -1.0744   0.04462   0.03872  -0.0316  1.0000  0.0386  -5.4811   0.0000   0.2072
 -11.900  -1.0748   0.04380   0.03781  -0.0306  1.0000  0.0389  -5.4481   0.0000   0.2082
 -11.800  -1.0746   0.04302   0.03698  -0.0297  1.0000  0.0391  -5.4113   0.0000   0.2092
 -11.700  -1.0736   0.04225   0.03615  -0.0288  1.0000  0.0394  -5.3705   0.0000   0.2101
 -11.600  -1.0719   0.04148   0.03531  -0.0281  1.0000  0.0398  -5.3336   0.0000   0.2110
 -11.500  -1.0699   0.04071   0.03448  -0.0273  1.0000  0.0401  -5.3015   0.0000   0.2118
 -11.400  -1.0675   0.03995   0.03364  -0.0265  1.0000  0.0404  -5.2689   0.0000   0.2126
 -11.300  -1.0648   0.03919   0.03280  -0.0258  1.0000  0.0408  -5.2356   0.0000   0.2133
 -11.200  -1.0617   0.03843   0.03196  -0.0250  1.0000  0.0412  -5.2018   0.0000   0.2141
 -11.100  -1.0581   0.03768   0.03114  -0.0243  1.0000  0.0416  -5.1659   0.0000   0.2148
 -11.000  -1.0541   0.03694   0.03033  -0.0236  1.0000  0.0420  -5.1288   0.0000   0.2155
 -10.900  -1.0499   0.03621   0.02951  -0.0229  1.0000  0.0424  -5.0913   0.0000   0.2162
 -10.800  -1.0454   0.03548   0.02869  -0.0223  1.0000  0.0429  -5.0533   0.0000   0.2169
 -10.700  -1.0406   0.03476   0.02789  -0.0216  1.0000  0.0434  -5.0145   0.0000   0.2175
 -10.600  -1.0354   0.03406   0.02709  -0.0210  1.0000  0.0439  -4.9748   0.0000   0.2182
 -10.500  -1.0300   0.03338   0.02632  -0.0203  1.0000  0.0444  -4.9338   0.0000   0.2188
 -10.400  -1.0243   0.03274   0.02559  -0.0197  1.0000  0.0450  -4.8912   0.0000   0.2194
 -10.300  -1.0183   0.03222   0.02498  -0.0191  1.0000  0.0456  -4.8436   0.0000   0.2200
 -10.200  -1.0120   0.03184   0.02450  -0.0185  1.0000  0.0462  -4.7916   0.0000   0.2207
 -10.100  -1.0055   0.03159   0.02416  -0.0178  1.0000  0.0468  -4.7355   0.0000   0.2213
 -10.000  -1.0001   0.03073   0.02320  -0.0172  1.0000  0.0476  -4.6978   0.0000   0.2219
  -9.900  -0.9947   0.02924   0.02166  -0.0168  1.0000  0.0489  -4.6678   0.0000   0.2224
  -9.800  -0.9877   0.02861   0.02104  -0.0164  1.0000  0.0499  -4.6090   0.0000   0.2228
  -9.700  -0.9804   0.02819   0.02062  -0.0159  1.0000  0.0508  -4.5456   0.0000   0.2232
  -9.600  -0.9729   0.02780   0.02022  -0.0155  1.0000  0.0518  -4.4835   0.0000   0.2236
  -9.500  -0.9654   0.02740   0.01980  -0.0150  1.0000  0.0527  -4.4242   0.0000   0.2241
  -9.400  -0.9578   0.02696   0.01932  -0.0146  1.0000  0.0537  -4.3680   0.0000   0.2246
  -9.300  -0.9501   0.02651   0.01878  -0.0141  1.0000  0.0546  -4.3143   0.0000   0.2251
  -9.200  -0.9423   0.02606   0.01827  -0.0136  1.0000  0.0556  -4.2596   0.0000   0.2256
  -9.100  -0.9343   0.02563   0.01778  -0.0131  1.0000  0.0566  -4.2042   0.0000   0.2261
  -9.000  -0.9263   0.02523   0.01732  -0.0126  1.0000  0.0575  -4.1481   0.0000   0.2266
  -8.900  -0.9181   0.02489   0.01691  -0.0121  1.0000  0.0584  -4.0906   0.0000   0.2271
  -8.800  -0.9099   0.02461   0.01656  -0.0116  1.0000  0.0591  -4.0315   0.0000   0.2277
  -8.700  -0.9028   0.02354   0.01550  -0.0112  1.0000  0.0607  -3.9904   0.0000   0.2282
  -8.600  -0.8955   0.02291   0.01489  -0.0107  1.0000  0.0621  -3.9359   0.0000   0.2288
  -8.500  -0.8879   0.02252   0.01451  -0.0102  1.0000  0.0635  -3.8753   0.0000   0.2293
  -8.400  -0.8801   0.02219   0.01419  -0.0097  1.0000  0.0649  -3.8138   0.0000   0.2299
  -8.300  -0.8721   0.02188   0.01387  -0.0092  1.0000  0.0664  -3.7530   0.0000   0.2304
  -8.200  -0.8641   0.02157   0.01354  -0.0087  1.0000  0.0681  -3.6932   0.0000   0.2310
  -8.100  -0.8559   0.02128   0.01321  -0.0082  1.0000  0.0698  -3.6339   0.0000   0.2316
  -8.000  -0.8475   0.02107   0.01294  -0.0077  1.0000  0.0714  -3.5726   0.0000   0.2322
  -7.900  -0.8396   0.02073   0.01257  -0.0071  1.0000  0.0732  -3.5148   0.0000   0.2329
  -7.800  -0.8335   0.02009   0.01200  -0.0064  1.0000  0.0759  -3.4641   0.0000   0.2338
  -7.700  -0.8260   0.01980   0.01173  -0.0059  1.0000  0.0782  -3.4028   0.0000   0.2345
  -7.600  -0.8181   0.01956   0.01150  -0.0054  1.0000  0.0806  -3.3409   0.0000   0.2351
  -7.500  -0.8100   0.01934   0.01126  -0.0048  1.0000  0.0832  -3.2804   0.0000   0.2358
  -7.400  -0.8017   0.01913   0.01100  -0.0043  1.0000  0.0857  -3.2202   0.0000   0.2365
  -7.300  -0.7942   0.01879   0.01064  -0.0037  1.0000  0.0881  -3.1644   0.0000   0.2374
  -7.200  -0.7881   0.01828   0.01016  -0.0029  1.0000  0.0913  -3.1118   0.0000   0.2384
  -7.100  -0.7807   0.01800   0.00991  -0.0022  1.0000  0.0943  -3.0539   0.0000   0.2393
  -7.000  -0.7728   0.01777   0.00967  -0.0017  1.0000  0.0977  -2.9954   0.0000   0.2401
  -6.900  -0.7646   0.01757   0.00944  -0.0011  1.0000  0.1011  -2.9456   0.0000   0.2409
  -6.800  -0.7575   0.01721   0.00910  -0.0004  1.0000  0.1049  -2.9030   0.0000   0.2419
  -6.700  -0.7508   0.01686   0.00882   0.0003  1.0000  0.1093  -2.8585   0.0000   0.2429
  -6.600  -0.7430   0.01664   0.00861   0.0009  1.0000  0.1140  -2.8101   0.0000   0.2438
  -6.500  -0.7344   0.01649   0.00841   0.0014  1.0000  0.1190  -2.7608   0.0000   0.2446
  -6.400  -0.7280   0.01611   0.00812   0.0021  1.0000  0.1250  -2.7176   0.0000   0.2457
  -6.300  -0.7203   0.01587   0.00794   0.0027  1.0000  0.1314  -2.6695   0.0000   0.2467
  -6.100  -0.7054   0.01536   0.00751   0.0039  1.0000  0.1456  -2.5764   0.0000   0.2487
  -6.000  -0.6973   0.01517   0.00733   0.0045  1.0000  0.1540  -2.5282   0.0000   0.2496
  -5.900  -0.6901   0.01489   0.00712   0.0051  1.0000  0.1626  -2.4826   0.0000   0.2507
  -5.800  -0.6823   0.01467   0.00695   0.0057  1.0000  0.1723  -2.4351   0.0000   0.2517
  -5.700  -0.6747   0.01443   0.00676   0.0063  1.0000  0.1821  -2.3885   0.0000   0.2528
  -5.600  -0.6669   0.01422   0.00661   0.0068  1.0000  0.1933  -2.3409   0.0000   0.2538
  -5.500  -0.6593   0.01400   0.00645   0.0074  1.0000  0.2047  -2.2940   0.0000   0.2549
  -5.400  -0.6512   0.01382   0.00632   0.0079  1.0000  0.2175  -2.2457   0.0000   0.2559
  -5.300  -0.6437   0.01359   0.00618   0.0085  1.0000  0.2304  -2.1987   0.0000   0.2570
  -5.200  -0.6355   0.01344   0.00606   0.0090  1.0000  0.2440  -2.1499   0.0000   0.2580
  -5.100  -0.6278   0.01323   0.00591   0.0095  1.0000  0.2580  -2.1012   0.0000   0.2591
  -5.000  -0.6197   0.01306   0.00580   0.0100  1.0000  0.2717  -2.0537   0.0000   0.2602
  -4.900  -0.6115   0.01291   0.00570   0.0105  1.0000  0.2862  -2.0062   0.0000   0.2613
  -4.800  -0.6035   0.01274   0.00561   0.0110  1.0000  0.2998  -1.9593   0.0000   0.2625
  -4.700  -0.5950   0.01262   0.00552   0.0115  1.0000  0.3143  -1.9115   0.0000   0.2636
  -4.600  -0.5870   0.01245   0.00545   0.0120  1.0000  0.3283  -1.8652   0.0000   0.2648
  -4.500  -0.5783   0.01235   0.00537   0.0124  1.0000  0.3427  -1.8182   0.0000   0.2659
  -4.400  -0.5702   0.01220   0.00531   0.0129  1.0000  0.3572  -1.7791   0.0000   0.2671
  -4.300  -0.5616   0.01209   0.00524   0.0133  1.0000  0.3712  -1.7392   0.0000   0.2683
  -4.200  -0.5532   0.01197   0.00519   0.0138  1.0000  0.3857  -1.7001   0.0000   0.2696
  -4.100  -0.5445   0.01187   0.00514   0.0142  1.0000  0.3994  -1.6606   0.0000   0.2708
  -4.000  -0.5360   0.01176   0.00510   0.0146  1.0000  0.4139  -1.6216   0.0000   0.2721
  -3.900  -0.5273   0.01167   0.00505   0.0150  1.0000  0.4275  -1.5825   0.0000   0.2734
  -3.800  -0.5186   0.01157   0.00502   0.0154  1.0000  0.4419  -1.5436   0.0000   0.2747
  -3.700  -0.5096   0.01150   0.00499   0.0158  1.0000  0.4554  -1.5046   0.0000   0.2760
  -3.600  -0.5008   0.01141   0.00497   0.0161  1.0000  0.4696  -1.4659   0.0000   0.2773
  -3.500  -0.4917   0.01134   0.00495   0.0165  1.0000  0.4832  -1.4272   0.0000   0.2787
  -3.400  -0.4828   0.01126   0.00494   0.0168  1.0000  0.4975  -1.3888   0.0000   0.2801
  -3.300  -0.4736   0.01121   0.00492   0.0171  1.0000  0.5110  -1.3504   0.0000   0.2815
  -3.200  -0.4647   0.01114   0.00493   0.0175  1.0000  0.5248  -1.3123   0.0000   0.2830
  -3.100  -0.4555   0.01110   0.00488   0.0178  1.0000  0.5385  -1.2734   0.0000   0.2845
  -3.000  -0.4466   0.01103   0.00490   0.0181  1.0000  0.5522  -1.2407   0.0000   0.2862
  -2.800  -0.4284   0.01095   0.00493   0.0188  1.0000  0.5793  -1.1772   0.0000   0.2896
  -2.700  -0.4193   0.01093   0.00494   0.0191  1.0000  0.5934  -1.1458   0.0000   0.2913
  -2.600  -0.4103   0.01088   0.00497   0.0194  1.0000  0.6065  -1.1147   0.0000   0.2932
  -2.400  -0.3760   0.01080   0.00502   0.0169  0.9950  0.6388  -1.0276   0.0000   0.2909
  -2.200  -0.3422   0.01072   0.00507   0.0146  0.9894  0.6698  -0.9477   0.0000   0.2885
  -2.100  -0.3255   0.01069   0.00507   0.0134  0.9861  0.6850  -0.9116   0.0000   0.2872
  -2.000  -0.3086   0.01065   0.00511   0.0123  0.9833  0.6994  -0.8754   0.0000   0.2860
  -1.900  -0.2904   0.01063   0.00513   0.0109  0.9809  0.7143  -0.8380   0.0000   0.2836
  -1.800  -0.2751   0.01058   0.00515   0.0102  0.9774  0.7275  -0.8057   0.0000   0.2831
  -1.700  -0.2601   0.01054   0.00514   0.0095  0.9731  0.7415  -0.7769   0.0000   0.2825
  -1.600  -0.2439   0.01050   0.00518   0.0086  0.9699  0.7536  -0.7469   0.0000   0.2815
  -1.500  -0.2264   0.01048   0.00516   0.0074  0.9670  0.7673  -0.7157   0.0000   0.2790
  -1.400  -0.2082   0.01045   0.00519   0.0062  0.9648  0.7789  -0.6861   0.0000   0.2759
  -1.300  -0.1926   0.01042   0.00520   0.0055  0.9614  0.7911  -0.6606   0.0000   0.2746
  -1.200  -0.1793   0.01039   0.00520   0.0052  0.9564  0.8021  -0.6374   0.0000   0.2754
  -1.100  -0.1631   0.01037   0.00522   0.0045  0.9529  0.8127  -0.6131   0.0000   0.2737
  -1.000  -0.1457   0.01034   0.00520   0.0034  0.9498  0.8244  -0.5891   0.0000   0.2694
  -0.900  -0.1279   0.01032   0.00523   0.0024  0.9473  0.8329  -0.5647   0.0000   0.2647
  -0.800  -0.1101   0.01030   0.00523   0.0013  0.9450  0.8426  -0.5428   0.0000   0.2582
  -0.700  -0.0999   0.01028   0.00522   0.0018  0.9384  0.8526  -0.5272   0.0000   0.2639
  -0.600  -0.0853   0.01028   0.00525   0.0015  0.9336  0.8598  -0.5083   0.0000   0.2635
  -0.500  -0.0701   0.01026   0.00524   0.0010  0.9295  0.8683  -0.4905   0.0000   0.2606
  -0.400  -0.0549   0.01022   0.00520   0.0005  0.9258  0.8772  -0.4729   0.0000   0.2550
  -0.300  -0.0391   0.01023   0.00523  -0.0000  0.9217  0.8828  -0.4558   0.0000   0.2453
  -0.200  -0.0278   0.01024   0.00526   0.0003  0.9143  0.8899  -0.4423   0.0000   0.2583
  -0.100  -0.0155   0.01022   0.00524   0.0005  0.9083  0.8982  -0.4282   0.0000   0.2767
   0.000   0.0000   0.01020   0.00521   0.0000  0.9036  0.9036  -0.4131   0.0000  -0.4958
   0.100   0.0155   0.01022   0.00524  -0.0005  0.8982  0.9083  -0.4282   0.0000   0.2767
   0.200   0.0278   0.01024   0.00526  -0.0003  0.8899  0.9143  -0.4423   0.0000   0.2583
   0.300   0.0391   0.01023   0.00523   0.0000  0.8828  0.9217  -0.4558   0.0000   0.2452
   0.400   0.0549   0.01022   0.00520  -0.0005  0.8772  0.9258  -0.4729   0.0000   0.2550
   0.500   0.0701   0.01026   0.00524  -0.0010  0.8683  0.9295  -0.4905   0.0000   0.2606
   0.600   0.0853   0.01027   0.00525  -0.0015  0.8599  0.9336  -0.5083   0.0000   0.2635
   0.700   0.0999   0.01028   0.00522  -0.0018  0.8526  0.9384  -0.5271   0.0000   0.2639
   0.800   0.1101   0.01030   0.00523  -0.0013  0.8426  0.9450  -0.5428   0.0000   0.2582
   0.900   0.1279   0.01032   0.00522  -0.0024  0.8329  0.9473  -0.5647   0.0000   0.2647
   1.000   0.1457   0.01034   0.00520  -0.0034  0.8243  0.9498  -0.5891   0.0000   0.2694
   1.100   0.1631   0.01037   0.00522  -0.0045  0.8127  0.9529  -0.6131   0.0000   0.2737
   1.200   0.1792   0.01039   0.00520  -0.0052  0.8021  0.9564  -0.6374   0.0000   0.2754
   1.300   0.1925   0.01042   0.00520  -0.0055  0.7911  0.9614  -0.6605   0.0000   0.2746
   1.400   0.2082   0.01045   0.00519  -0.0062  0.7789  0.9649  -0.6861   0.0000   0.2759
   1.500   0.2264   0.01048   0.00516  -0.0074  0.7673  0.9670  -0.7157   0.0000   0.2790
   1.600   0.2439   0.01050   0.00518  -0.0086  0.7537  0.9699  -0.7468   0.0000   0.2815
   1.700   0.2601   0.01054   0.00514  -0.0095  0.7415  0.9731  -0.7769   0.0000   0.2825
   1.800   0.2750   0.01058   0.00515  -0.0102  0.7275  0.9775  -0.8056   0.0000   0.2831
   1.900   0.2904   0.01063   0.00512  -0.0109  0.7143  0.9809  -0.8380   0.0000   0.2836
   2.000   0.3086   0.01064   0.00511  -0.0123  0.6994  0.9834  -0.8754   0.0000   0.2860
   2.100   0.3255   0.01069   0.00507  -0.0134  0.6850  0.9861  -0.9116   0.0000   0.2872
   2.200   0.3422   0.01072   0.00507  -0.0146  0.6698  0.9895  -0.9477   0.0000   0.2885
   2.300   0.3578   0.01079   0.00505  -0.0154  0.6552  0.9928  -0.9832   0.0000   0.2891
   2.400   0.3760   0.01080   0.00502  -0.0169  0.6387  0.9950  -1.0276   0.0000   0.2909
   2.500   0.3931   0.01085   0.00498  -0.0181  0.6234  0.9975  -1.0709   0.0000   0.2920
   2.600   0.4102   0.01088   0.00497  -0.0194  0.6066  1.0000  -1.1144   0.0000   0.2931
   2.700   0.4192   0.01093   0.00494  -0.0191  0.5934  1.0000  -1.1455   0.0000   0.2912
   2.800   0.4283   0.01094   0.00492  -0.0188  0.5794  1.0000  -1.1770   0.0000   0.2895
   3.000   0.4464   0.01103   0.00490  -0.0181  0.5523  1.0000  -1.2405   0.0000   0.2861
   3.100   0.4553   0.01110   0.00488  -0.0178  0.5386  1.0000  -1.2732   0.0000   0.2845
   3.200   0.4645   0.01113   0.00493  -0.0175  0.5248  1.0000  -1.3120   0.0000   0.2830
   3.300   0.4735   0.01121   0.00492  -0.0171  0.5111  1.0000  -1.3501   0.0000   0.2815
   3.400   0.4827   0.01126   0.00494  -0.0168  0.4975  1.0000  -1.3886   0.0000   0.2801
   3.500   0.4916   0.01134   0.00495  -0.0164  0.4833  1.0000  -1.4269   0.0000   0.2786
   3.600   0.5006   0.01141   0.00497  -0.0161  0.4696  1.0000  -1.4657   0.0000   0.2773
   3.700   0.5095   0.01149   0.00499  -0.0157  0.4555  1.0000  -1.5043   0.0000   0.2759
   3.800   0.5184   0.01157   0.00502  -0.0154  0.4419  1.0000  -1.5434   0.0000   0.2746
   3.900   0.5271   0.01167   0.00505  -0.0150  0.4276  1.0000  -1.5822   0.0000   0.2733
   4.000   0.5359   0.01176   0.00509  -0.0146  0.4139  1.0000  -1.6214   0.0000   0.2720
   4.100   0.5444   0.01187   0.00514  -0.0141  0.3995  1.0000  -1.6603   0.0000   0.2707
   4.200   0.5531   0.01196   0.00519  -0.0137  0.3857  1.0000  -1.6998   0.0000   0.2695
   4.300   0.5614   0.01209   0.00524  -0.0133  0.3713  1.0000  -1.7390   0.0000   0.2683
   4.400   0.5701   0.01219   0.00531  -0.0129  0.3572  1.0000  -1.7788   0.0000   0.2671
   4.500   0.5782   0.01235   0.00537  -0.0124  0.3428  1.0000  -1.8179   0.0000   0.2659
   4.600   0.5868   0.01245   0.00544  -0.0120  0.3284  1.0000  -1.8649   0.0000   0.2647
   4.700   0.5948   0.01262   0.00552  -0.0114  0.3144  1.0000  -1.9112   0.0000   0.2635
   4.800   0.6034   0.01274   0.00561  -0.0110  0.2999  1.0000  -1.9590   0.0000   0.2624
   4.900   0.6114   0.01291   0.00570  -0.0105  0.2863  1.0000  -2.0059   0.0000   0.2613
   5.000   0.6196   0.01306   0.00580  -0.0100  0.2718  1.0000  -2.0534   0.0000   0.2602
   5.100   0.6277   0.01323   0.00591  -0.0095  0.2581  1.0000  -2.1009   0.0000   0.2591
   5.200   0.6354   0.01343   0.00606  -0.0090  0.2441  1.0000  -2.1496   0.0000   0.2580
   5.300   0.6436   0.01359   0.00618  -0.0085  0.2305  1.0000  -2.1984   0.0000   0.2570
   5.400   0.6511   0.01382   0.00632  -0.0079  0.2176  1.0000  -2.2454   0.0000   0.2558
   5.500   0.6592   0.01399   0.00645  -0.0074  0.2048  1.0000  -2.2937   0.0000   0.2548
   5.600   0.6668   0.01422   0.00661  -0.0068  0.1934  1.0000  -2.3407   0.0000   0.2538
   5.700   0.6746   0.01443   0.00676  -0.0063  0.1822  1.0000  -2.3882   0.0000   0.2527
   5.800   0.6822   0.01467   0.00694  -0.0057  0.1723  1.0000  -2.4348   0.0000   0.2517
   5.900   0.6900   0.01489   0.00711  -0.0051  0.1626  1.0000  -2.4823   0.0000   0.2507
   6.000   0.6972   0.01517   0.00733  -0.0045  0.1540  1.0000  -2.5279   0.0000   0.2496
   6.100   0.7053   0.01536   0.00750  -0.0039  0.1457  1.0000  -2.5762   0.0000   0.2486
   6.200   0.7118   0.01571   0.00775  -0.0032  0.1380  1.0000  -2.6204   0.0000   0.2475
   6.300   0.7203   0.01587   0.00793  -0.0027  0.1314  1.0000  -2.6693   0.0000   0.2466
   6.400   0.7279   0.01610   0.00812  -0.0021  0.1250  1.0000  -2.7174   0.0000   0.2457
   6.500   0.7344   0.01648   0.00841  -0.0014  0.1190  1.0000  -2.7606   0.0000   0.2446
   6.600   0.7429   0.01664   0.00861  -0.0008  0.1140  1.0000  -2.8099   0.0000   0.2438
   6.700   0.7507   0.01686   0.00881  -0.0003  0.1093  1.0000  -2.8583   0.0000   0.2429
   6.800   0.7575   0.01721   0.00910   0.0004  0.1049  1.0000  -2.9028   0.0000   0.2419
   6.900   0.7645   0.01756   0.00944   0.0011  0.1011  1.0000  -2.9454   0.0000   0.2409
   7.000   0.7728   0.01777   0.00967   0.0017  0.0977  1.0000  -2.9953   0.0000   0.2401
   7.100   0.7806   0.01800   0.00991   0.0023  0.0944  1.0000  -3.0537   0.0000   0.2393
   7.200   0.7881   0.01827   0.01016   0.0029  0.0913  1.0000  -3.1116   0.0000   0.2384
   7.300   0.7941   0.01878   0.01064   0.0037  0.0881  1.0000  -3.1644   0.0000   0.2374
   7.400   0.8017   0.01913   0.01100   0.0043  0.0857  1.0000  -3.2201   0.0000   0.2365
   7.500   0.8100   0.01933   0.01125   0.0048  0.0832  1.0000  -3.2803   0.0000   0.2358
   7.600   0.8181   0.01956   0.01150   0.0054  0.0806  1.0000  -3.3409   0.0000   0.2351
   7.700   0.8260   0.01979   0.01173   0.0059  0.0782  1.0000  -3.4028   0.0000   0.2345
   7.800   0.8335   0.02009   0.01200   0.0064  0.0759  1.0000  -3.4641   0.0000   0.2338
   7.900   0.8396   0.02073   0.01256   0.0071  0.0732  1.0000  -3.5149   0.0000   0.2329
   8.000   0.8475   0.02107   0.01293   0.0077  0.0714  1.0000  -3.5727   0.0000   0.2322
   8.100   0.8559   0.02128   0.01321   0.0082  0.0698  1.0000  -3.6339   0.0000   0.2317
   8.200   0.8641   0.02157   0.01354   0.0087  0.0681  1.0000  -3.6933   0.0000   0.2310
   8.300   0.8721   0.02188   0.01387   0.0092  0.0664  1.0000  -3.7532   0.0000   0.2305
   8.400   0.8801   0.02219   0.01419   0.0097  0.0649  1.0000  -3.8140   0.0000   0.2299
   8.500   0.8880   0.02252   0.01451   0.0102  0.0635  1.0000  -3.8755   0.0000   0.2293
   8.600   0.8956   0.02291   0.01489   0.0106  0.0621  1.0000  -3.9361   0.0000   0.2288
   8.700   0.9029   0.02355   0.01550   0.0111  0.0607  1.0000  -3.9907   0.0000   0.2282
   8.800   0.9099   0.02461   0.01656   0.0116  0.0591  1.0000  -4.0317   0.0000   0.2277
   8.900   0.9182   0.02489   0.01691   0.0121  0.0584  1.0000  -4.0909   0.0000   0.2272
   9.000   0.9264   0.02523   0.01732   0.0126  0.0575  1.0000  -4.1484   0.0000   0.2266
   9.100   0.9345   0.02563   0.01778   0.0131  0.0566  1.0000  -4.2046   0.0000   0.2261
   9.200   0.9424   0.02606   0.01827   0.0136  0.0556  1.0000  -4.2600   0.0000   0.2256
   9.300   0.9502   0.02651   0.01878   0.0141  0.0546  1.0000  -4.3147   0.0000   0.2251
   9.400   0.9579   0.02697   0.01932   0.0145  0.0537  1.0000  -4.3684   0.0000   0.2246
   9.500   0.9655   0.02740   0.01980   0.0150  0.0527  1.0000  -4.4247   0.0000   0.2241
   9.600   0.9731   0.02780   0.02022   0.0155  0.0517  1.0000  -4.4841   0.0000   0.2237
   9.700   0.9806   0.02819   0.02062   0.0159  0.0508  1.0000  -4.5462   0.0000   0.2232
   9.800   0.9879   0.02861   0.02104   0.0163  0.0499  1.0000  -4.6097   0.0000   0.2228
   9.900   0.9949   0.02924   0.02166   0.0167  0.0488  1.0000  -4.6685   0.0000   0.2224
  10.000   1.0003   0.03075   0.02323   0.0172  0.0475  1.0000  -4.6978   0.0000   0.2220
  10.100   1.0057   0.03158   0.02416   0.0178  0.0468  1.0000  -4.7363   0.0000   0.2213
  10.200   1.0122   0.03184   0.02450   0.0184  0.0462  1.0000  -4.7924   0.0000   0.2207
  10.300   1.0186   0.03222   0.02498   0.0190  0.0456  1.0000  -4.8444   0.0000   0.2201
  10.400   1.0246   0.03274   0.02559   0.0196  0.0450  1.0000  -4.8920   0.0000   0.2195
  10.500   1.0303   0.03339   0.02633   0.0203  0.0444  1.0000  -4.9346   0.0000   0.2189
  10.600   1.0357   0.03407   0.02710   0.0209  0.0439  1.0000  -4.9756   0.0000   0.2182
  10.700   1.0409   0.03477   0.02789   0.0216  0.0434  1.0000  -5.0154   0.0000   0.2176
  10.800   1.0457   0.03549   0.02870   0.0222  0.0429  1.0000  -5.0543   0.0000   0.2169
  10.900   1.0502   0.03622   0.02951   0.0229  0.0424  1.0000  -5.0924   0.0000   0.2163
  11.000   1.0545   0.03695   0.03033   0.0236  0.0420  1.0000  -5.1299   0.0000   0.2156
  11.100   1.0585   0.03769   0.03115   0.0242  0.0416  1.0000  -5.1672   0.0000   0.2149
  11.200   1.0621   0.03844   0.03197   0.0249  0.0412  1.0000  -5.2031   0.0000   0.2142
  11.300   1.0652   0.03920   0.03281   0.0257  0.0408  1.0000  -5.2370   0.0000   0.2134
  11.400   1.0680   0.03996   0.03365   0.0264  0.0404  1.0000  -5.2704   0.0000   0.2127
  11.500   1.0704   0.04072   0.03449   0.0272  0.0401  1.0000  -5.3033   0.0000   0.2119
  11.600   1.0725   0.04149   0.03532   0.0280  0.0397  1.0000  -5.3354   0.0000   0.2111
  11.700   1.0743   0.04226   0.03616   0.0287  0.0394  1.0000  -5.3731   0.0000   0.2103
  11.800   1.0754   0.04304   0.03699   0.0296  0.0391  1.0000  -5.4142   0.0000   0.2094
  11.900   1.0755   0.04382   0.03783   0.0305  0.0389  1.0000  -5.4513   0.0000   0.2084
  12.000   1.0753   0.04464   0.03873   0.0314  0.0386  1.0000  -5.4845   0.0000   0.2073
  12.100   1.0744   0.04553   0.03968   0.0324  0.0383  1.0000  -5.5148   0.0000   0.2063
  12.200   1.0729   0.04650   0.04071   0.0332  0.0381  1.0000  -5.5402   0.0000   0.2053
  12.300   1.0705   0.04759   0.04186   0.0341  0.0379  1.0000  -5.5593   0.0000   0.2043
  12.400   1.0672   0.04879   0.04313   0.0348  0.0377  1.0000  -5.5709   0.0000   0.2033
  12.500   1.0627   0.05010   0.04452   0.0355  0.0375  1.0000  -5.5745   0.0000   0.2024
  12.600   1.0573   0.05153   0.04604   0.0361  0.0374  1.0000  -5.5705   0.0000   0.2015
  12.700   1.0509   0.05307   0.04767   0.0365  0.0373  1.0000  -5.5599   0.0000   0.2007
  12.800   1.0438   0.05470   0.04939   0.0368  0.0372  1.0000  -5.5437   0.0000   0.2000
  12.900   1.0361   0.05643   0.05122   0.0368  0.0372  1.0000  -5.5229   0.0000   0.1995
  13.000   1.0280   0.05826   0.05314   0.0367  0.0371  1.0000  -5.4981   0.0000   0.1992
  13.100   1.0195   0.06018   0.05515   0.0363  0.0371  1.0000  -5.4697   0.0000   0.1990
  13.200   1.0107   0.06222   0.05729   0.0357  0.0371  1.0000  -5.4379   0.0000   0.1991
  13.300   1.0016   0.06439   0.05955   0.0348  0.0371  1.0000  -5.4025   0.0000   0.1995
  13.400   0.9922   0.06670   0.06195   0.0337  0.0371  1.0000  -5.3627   0.0000   0.2001
  13.500   0.9823   0.06918   0.06452   0.0323  0.0372  1.0000  -5.3173   0.0000   0.2009
  13.600   0.9716   0.07191   0.06735   0.0305  0.0372  1.0000  -5.2632   0.0000   0.2022
  13.700   0.9593   0.07508   0.07063   0.0282  0.0374  1.0000  -5.1920   0.0000   0.2039
  13.800   0.9380   0.08008   0.07576   0.0242  0.0378  1.0000  -5.0399   0.0000   0.2073
  13.900   0.7268   0.13507   0.13116  -0.0094  0.0484  1.0000  -2.7536   0.0000   0.2475
  14.000   0.7292   0.13567   0.13175  -0.0092  0.0479  1.0000  -2.8082   0.0000   0.2469
  14.100   0.1602   0.03269   0.02974   0.0293  0.0900  1.0000  -0.6365   0.0000   0.0833
  14.200   0.1660   0.03330   0.03034   0.0296  0.0893  1.0000  -0.6631   0.0000   0.0868
  14.300   0.1733   0.03401   0.03105   0.0301  0.0886  1.0000  -0.6981   0.0000   0.0905
  14.400   0.1819   0.03491   0.03195   0.0307  0.0880  1.0000  -0.7399   0.0000   0.0942
  14.500   0.6782   0.16402   0.16007  -0.0234  0.0627  1.0000  -1.9183   0.0000   0.2696
  14.600   0.6818   0.16523   0.16127  -0.0236  0.0621  1.0000  -1.9436   0.0000   0.2695
  14.700   0.6859   0.16637   0.16242  -0.0236  0.0617  1.0000  -1.9737   0.0000   0.2692
  14.800   0.6903   0.16747   0.16352  -0.0235  0.0612  1.0000  -2.0084   0.0000   0.2688
  14.900   0.6949   0.16854   0.16459  -0.0234  0.0609  1.0000  -2.0472   0.0000   0.2682
  15.000   0.6997   0.16964   0.16570  -0.0231  0.0605  1.0000  -2.0887   0.0000   0.2674
  15.100   0.7047   0.17083   0.16689  -0.0227  0.0602  1.0000  -2.1332   0.0000   0.2665
  15.200   0.7097   0.17230   0.16837  -0.0221  0.0598  1.0000  -2.1814   0.0000   0.2652
  15.300   0.7085   0.17633   0.17238  -0.0221  0.0592  1.0000  -2.1625   0.0000   0.2653
  15.400   0.7090   0.17835   0.17440  -0.0232  0.0592  1.0000  -2.1436   0.0000   0.2667
  15.500   0.7096   0.18033   0.17637  -0.0243  0.0591  1.0000  -2.1249   0.0000   0.2681
  15.600   0.7103   0.18225   0.17829  -0.0254  0.0591  1.0000  -2.1058   0.0000   0.2695
  15.700   0.7104   0.18415   0.18019  -0.0267  0.0590  1.0000  -2.0812   0.0000   0.2712
  15.800   0.7093   0.18608   0.18211  -0.0282  0.0588  1.0000  -2.0420   0.0000   0.2734
  15.900   0.7072   0.18792   0.18395  -0.0302  0.0586  1.0000  -1.9897   0.0000   0.2762
  16.000   0.6987   0.18974   0.18574  -0.0339  0.0575  1.0000  -1.8654   0.0000   0.2820
  16.100   0.6969   0.19155   0.18754  -0.0359  0.0561  1.0000  -1.8138   0.0000   0.2849
  16.200   0.6981   0.19318   0.18918  -0.0370  0.0552  1.0000  -1.8001   0.0000   0.2862
  16.300   0.7000   0.19474   0.19074  -0.0379  0.0544  1.0000  -1.7954   0.0000   0.2872
  16.400   0.7021   0.19623   0.19223  -0.0386  0.0536  1.0000  -1.7956   0.0000   0.2880
  16.500   0.7046   0.19765   0.19365  -0.0393  0.0528  1.0000  -1.8004   0.0000   0.2887
  16.600   0.7073   0.19899   0.19499  -0.0399  0.0521  1.0000  -1.8100   0.0000   0.2892
  16.700   0.7104   0.20024   0.19623  -0.0404  0.0513  1.0000  -1.8254   0.0000   0.2895
  16.800   0.7139   0.20138   0.19738  -0.0408  0.0506  1.0000  -1.8480   0.0000   0.2896
  16.900   0.7179   0.20242   0.19842  -0.0410  0.0499  1.0000  -1.8797   0.0000   0.2894
  17.000   0.7227   0.20336   0.19936  -0.0410  0.0493  1.0000  -1.9233   0.0000   0.2888
  17.100   0.7287   0.20424   0.20028  -0.0406  0.0487  1.0000  -1.9860   0.0000   0.2876
  17.200   0.7370   0.20527   0.20133  -0.0395  0.0482  1.0000  -2.0726   0.0000   0.2854
  17.300   0.7446   0.20687   0.20294  -0.0384  0.0477  1.0000  -2.1557   0.0000   0.2831
  17.400   0.7463   0.21097   0.20702  -0.0382  0.0471  1.0000  -2.1528   0.0000   0.2827
  17.500   0.7479   0.21269   0.20875  -0.0392  0.0471  1.0000  -2.1351   0.0000   0.2838
  17.600   0.7495   0.21438   0.21043  -0.0403  0.0471  1.0000  -2.1161   0.0000   0.2850
  17.700   0.7506   0.21603   0.21208  -0.0415  0.0470  1.0000  -2.0897   0.0000   0.2865
  17.800   0.7510   0.21761   0.21366  -0.0429  0.0469  1.0000  -2.0530   0.0000   0.2882
  17.900   0.7509   0.21906   0.21510  -0.0446  0.0467  1.0000  -2.0075   0.0000   0.2903
  18.000   0.7482   0.22018   0.21621  -0.0471  0.0464  1.0000  -1.9292   0.0000   0.2937
  18.100   0.7449   0.22151   0.21752  -0.0504  0.0451  1.0000  -1.8160   0.0000   0.2984
  18.200   0.7465   0.22314   0.21915  -0.0518  0.0438  1.0000  -1.7823   0.0000   0.3001
  18.300   0.7490   0.22465   0.22067  -0.0528  0.0428  1.0000  -1.7695   0.0000   0.3009
  18.400   0.7517   0.22609   0.22210  -0.0536  0.0419  1.0000  -1.7637   0.0000   0.3016
  18.500   0.7546   0.22747   0.22348  -0.0543  0.0411  1.0000  -1.7623   0.0000   0.3022
  18.600   0.7577   0.22879   0.22481  -0.0550  0.0405  1.0000  -1.7648   0.0000   0.3026
  18.700   0.7609   0.23007   0.22609  -0.0556  0.0398  1.0000  -1.7709   0.0000   0.3029
  18.800   0.7642   0.23131   0.22733  -0.0561  0.0393  1.0000  -1.7808   0.0000   0.3032
  18.900   0.7677   0.23252   0.22854  -0.0566  0.0388  1.0000  -1.7945   0.0000   0.3033
  19.000   0.7713   0.23371   0.22974  -0.0570  0.0384  1.0000  -1.8124   0.0000   0.3033
  19.100   0.7752   0.23491   0.23094  -0.0573  0.0380  1.0000  -1.8347   0.0000   0.3031
  19.200   0.7793   0.23614   0.23217  -0.0575  0.0377  1.0000  -1.8623   0.0000   0.3028
  19.300   0.7837   0.23747   0.23351  -0.0575  0.0374  1.0000  -1.8963   0.0000   0.3022
  19.400   0.7889   0.23903   0.23508  -0.0572  0.0371  1.0000  -1.9390   0.0000   0.3012
  19.500   0.7953   0.24122   0.23729  -0.0565  0.0368  1.0000  -1.9964   0.0000   0.2995
  19.600   0.7989   0.24609   0.24214  -0.0559  0.0364  1.0000  -2.0031   0.0000   0.2984
  19.700   0.8012   0.24769   0.24374  -0.0569  0.0363  1.0000  -1.9825   0.0000   0.2994
  19.800   0.8035   0.24924   0.24529  -0.0579  0.0363  1.0000  -1.9625   0.0000   0.3003
  19.900   0.8055   0.25074   0.24679  -0.0591  0.0363  1.0000  -1.9389   0.0000   0.3013
  20.000   0.8073   0.25216   0.24820  -0.0603  0.0362  1.0000  -1.9118   0.0000   0.3025


