xflr5 v6.32

 Calculated polar for: NACA 0012

 1 1 Reynolds number fixed          Mach number fixed         

 xtrf =   1.000 (top)        1.000 (bottom)
 Mach =   0.000     Re =    20.000 e 6     Ncrit =   9.000

  alpha     CL        CD       CDp       Cm    Top Xtr Bot Xtr   Cpmin    Chinge    XCp    
 ------- -------- --------- --------- -------- ------- ------- -------- --------- ---------
 -15.000  -1.6436   0.01235   0.00837  -0.0032  1.0000  0.0067  -12.0032   0.0000   0.2289
 -14.900  -1.6340   0.01224   0.00826  -0.0031  1.0000  0.0067  -11.8617   0.0000   0.2292
 -14.800  -1.6244   0.01213   0.00815  -0.0029  1.0000  0.0067  -11.7207   0.0000   0.2295
 -14.700  -1.6148   0.01202   0.00804  -0.0027  1.0000  0.0067  -11.5800   0.0000   0.2298
 -14.600  -1.6051   0.01191   0.00793  -0.0025  1.0000  0.0067  -11.4399   0.0000   0.2301
 -14.500  -1.5954   0.01180   0.00782  -0.0023  1.0000  0.0067  -11.3002   0.0000   0.2304
 -14.400  -1.5857   0.01169   0.00771  -0.0022  1.0000  0.0068  -11.1611   0.0000   0.2307
 -14.300  -1.5759   0.01159   0.00761  -0.0020  1.0000  0.0068  -11.0224   0.0000   0.2309
 -14.200  -1.5661   0.01148   0.00751  -0.0018  1.0000  0.0068  -10.8843   0.0000   0.2312
 -14.100  -1.5562   0.01138   0.00740  -0.0017  1.0000  0.0068  -10.7468   0.0000   0.2315
 -14.000  -1.5463   0.01128   0.00730  -0.0015  1.0000  0.0068  -10.6098   0.0000   0.2318
 -13.900  -1.5364   0.01118   0.00720  -0.0014  1.0000  0.0068  -10.4736   0.0000   0.2320
 -13.800  -1.5265   0.01108   0.00710  -0.0012  1.0000  0.0068  -10.3377   0.0000   0.2323
 -13.700  -1.5165   0.01098   0.00700  -0.0011  1.0000  0.0068  -10.2025   0.0000   0.2326
 -13.600  -1.5065   0.01088   0.00691  -0.0009  1.0000  0.0068  -10.0678   0.0000   0.2328
 -13.500  -1.4965   0.01079   0.00681  -0.0008  1.0000  0.0068  -9.9338   0.0000   0.2331
 -13.400  -1.4865   0.01069   0.00672  -0.0006  1.0000  0.0068  -9.8004   0.0000   0.2334
 -13.300  -1.4764   0.01060   0.00662  -0.0005  1.0000  0.0068  -9.6676   0.0000   0.2336
 -13.200  -1.4663   0.01051   0.00653  -0.0004  1.0000  0.0068  -9.5356   0.0000   0.2339
 -13.100  -1.4563   0.01042   0.00644  -0.0002  1.0000  0.0068  -9.4043   0.0000   0.2342
 -13.000  -1.4462   0.01032   0.00635  -0.0001  1.0000  0.0068  -9.2736   0.0000   0.2344
 -12.900  -1.4361   0.01023   0.00626   0.0001  1.0000  0.0068  -9.1438   0.0000   0.2347
 -12.800  -1.4260   0.01015   0.00617   0.0002  1.0000  0.0068  -9.0148   0.0000   0.2350
 -12.700  -1.4159   0.01006   0.00609   0.0004  1.0000  0.0068  -8.8867   0.0000   0.2352
 -12.600  -1.4059   0.00997   0.00600   0.0005  1.0000  0.0069  -8.7595   0.0000   0.2355
 -12.500  -1.3959   0.00989   0.00592   0.0007  1.0000  0.0069  -8.6334   0.0000   0.2358
 -12.400  -1.3848   0.00980   0.00583   0.0006  0.9997  0.0069  -8.5015   0.0000   0.2359
 -12.300  -1.3735   0.00971   0.00575   0.0005  0.9993  0.0069  -8.3698   0.0000   0.2360
 -12.200  -1.3622   0.00962   0.00566   0.0004  0.9989  0.0069  -8.2387   0.0000   0.2361
 -12.100  -1.3509   0.00954   0.00558   0.0003  0.9983  0.0069  -8.1082   0.0000   0.2362
 -12.000  -1.3396   0.00945   0.00549   0.0002  0.9977  0.0070  -7.9887   0.0000   0.2363
 -11.900  -1.3282   0.00936   0.00540   0.0001  0.9970  0.0073  -7.8760   0.0000   0.2363
 -11.800  -1.3167   0.00927   0.00532  -0.0001  0.9962  0.0076  -7.7633   0.0000   0.2364
 -11.700  -1.3052   0.00918   0.00523  -0.0002  0.9954  0.0079  -7.6509   0.0000   0.2364
 -11.600  -1.2936   0.00909   0.00515  -0.0004  0.9945  0.0082  -7.5388   0.0000   0.2364
 -11.500  -1.2819   0.00900   0.00507  -0.0006  0.9936  0.0085  -7.4271   0.0000   0.2364
 -11.400  -1.2707   0.00891   0.00498  -0.0007  0.9926  0.0088  -7.3181   0.0000   0.2365
 -11.300  -1.2604   0.00882   0.00490  -0.0005  0.9916  0.0091  -7.2141   0.0000   0.2367
 -11.200  -1.2501   0.00873   0.00481  -0.0004  0.9901  0.0094  -7.1108   0.0000   0.2370
 -11.100  -1.2399   0.00864   0.00473  -0.0002  0.9879  0.0097  -7.0085   0.0000   0.2373
 -11.000  -1.2298   0.00855   0.00464  -0.0001  0.9850  0.0100  -6.9074   0.0000   0.2376
 -10.900  -1.2198   0.00846   0.00455   0.0002  0.9814  0.0103  -6.8075   0.0000   0.2379
 -10.800  -1.2095   0.00837   0.00446   0.0003  0.9793  0.0107  -6.7064   0.0000   0.2381
 -10.700  -1.1991   0.00827   0.00437   0.0004  0.9777  0.0110  -6.6053   0.0000   0.2384
 -10.600  -1.1888   0.00818   0.00429   0.0005  0.9751  0.0113  -6.5050   0.0000   0.2386
 -10.500  -1.1786   0.00811   0.00421   0.0007  0.9712  0.0115  -6.4059   0.0000   0.2389
 -10.400  -1.1685   0.00805   0.00414   0.0009  0.9663  0.0116  -6.3072   0.0000   0.2392
 -10.300  -1.1579   0.00798   0.00407   0.0010  0.9630  0.0117  -6.2076   0.0000   0.2395
 -10.200  -1.1471   0.00791   0.00401   0.0011  0.9613  0.0118  -6.1077   0.0000   0.2396
 -10.100  -1.1364   0.00785   0.00394   0.0011  0.9581  0.0118  -6.0090   0.0000   0.2399
 -10.000  -1.1259   0.00780   0.00388   0.0013  0.9531  0.0119  -5.9116   0.0000   0.2401
  -9.900  -1.1154   0.00775   0.00382   0.0014  0.9468  0.0119  -5.8149   0.0000   0.2404
  -9.800  -1.1045   0.00769   0.00376   0.0014  0.9436  0.0119  -5.7174   0.0000   0.2405
  -9.700  -1.0936   0.00763   0.00370   0.0015  0.9411  0.0120  -5.6205   0.0000   0.2407
  -9.600  -1.0828   0.00758   0.00364   0.0015  0.9362  0.0120  -5.5247   0.0000   0.2409
  -9.500  -1.0722   0.00754   0.00359   0.0016  0.9293  0.0120  -5.4300   0.0000   0.2411
  -9.400  -1.0613   0.00749   0.00353   0.0017  0.9231  0.0120  -5.3352   0.0000   0.2413
  -9.300  -1.0503   0.00744   0.00347   0.0017  0.9207  0.0121  -5.2405   0.0000   0.2415
  -9.200  -1.0394   0.00739   0.00342   0.0017  0.9157  0.0121  -5.1469   0.0000   0.2417
  -9.100  -1.0286   0.00735   0.00336   0.0018  0.9080  0.0121  -5.0544   0.0000   0.2419
  -9.000  -1.0176   0.00731   0.00331   0.0018  0.9005  0.0121  -4.9620   0.0000   0.2420
  -8.900  -1.0065   0.00726   0.00325   0.0018  0.8977  0.0121  -4.8698   0.0000   0.2422
  -8.800  -0.9956   0.00722   0.00320   0.0019  0.8920  0.0123  -4.7789   0.0000   0.2424
  -8.700  -0.9847   0.00718   0.00314   0.0019  0.8831  0.0126  -4.6897   0.0000   0.2425
  -8.600  -0.9736   0.00713   0.00309   0.0019  0.8759  0.0131  -4.5999   0.0000   0.2427
  -8.500  -0.9626   0.00708   0.00303   0.0020  0.8724  0.0138  -4.5108   0.0000   0.2429
  -8.400  -0.9516   0.00703   0.00298   0.0020  0.8654  0.0146  -4.4230   0.0000   0.2430
  -8.300  -0.9408   0.00699   0.00292   0.0020  0.8551  0.0154  -4.3361   0.0000   0.2432
  -8.200  -0.9298   0.00691   0.00285   0.0021  0.8497  0.0163  -4.2498   0.0000   0.2434
  -8.100  -0.9189   0.00684   0.00278   0.0021  0.8448  0.0170  -4.1643   0.0000   0.2436
  -8.000  -0.9081   0.00679   0.00272   0.0022  0.8359  0.0177  -4.0794   0.0000   0.2438
  -7.900  -0.8971   0.00675   0.00266   0.0022  0.8252  0.0181  -3.9944   0.0000   0.2439
  -7.800  -0.8859   0.00670   0.00261   0.0022  0.8219  0.0183  -3.9094   0.0000   0.2440
  -7.700  -0.8747   0.00666   0.00257   0.0022  0.8159  0.0185  -3.8252   0.0000   0.2442
  -7.600  -0.8636   0.00664   0.00252   0.0022  0.8051  0.0186  -3.7419   0.0000   0.2443
  -7.500  -0.8524   0.00661   0.00248   0.0022  0.7969  0.0187  -3.6588   0.0000   0.2445
  -7.400  -0.8412   0.00657   0.00243   0.0022  0.7924  0.0187  -3.5764   0.0000   0.2446
  -7.300  -0.8300   0.00655   0.00239   0.0022  0.7837  0.0188  -3.4949   0.0000   0.2447
  -7.200  -0.8188   0.00653   0.00236   0.0022  0.7722  0.0188  -3.4140   0.0000   0.2448
  -7.100  -0.8075   0.00649   0.00231   0.0021  0.7679  0.0192  -3.3334   0.0000   0.2449
  -7.000  -0.7962   0.00646   0.00227   0.0021  0.7628  0.0199  -3.2532   0.0000   0.2450
  -6.900  -0.7851   0.00644   0.00223   0.0021  0.7519  0.0208  -3.1749   0.0000   0.2452
  -6.800  -0.7739   0.00640   0.00218   0.0021  0.7413  0.0218  -3.0971   0.0000   0.2453
  -6.700  -0.7626   0.00636   0.00214   0.0021  0.7377  0.0227  -3.0268   0.0000   0.2454
  -6.600  -0.7515   0.00632   0.00209   0.0021  0.7305  0.0237  -2.9620   0.0000   0.2456
  -6.500  -0.7404   0.00628   0.00205   0.0021  0.7197  0.0246  -2.8978   0.0000   0.2457
  -6.400  -0.7292   0.00623   0.00199   0.0021  0.7119  0.0256  -2.8337   0.0000   0.2458
  -6.300  -0.7180   0.00619   0.00195   0.0021  0.7076  0.0262  -2.7697   0.0000   0.2459
  -6.200  -0.7067   0.00617   0.00192   0.0021  0.6988  0.0265  -2.7063   0.0000   0.2461
  -6.100  -0.6954   0.00616   0.00189   0.0021  0.6865  0.0267  -2.6433   0.0000   0.2462
  -6.000  -0.6840   0.00613   0.00185   0.0020  0.6819  0.0268  -2.5805   0.0000   0.2462
  -5.800  -0.6614   0.00609   0.00178   0.0020  0.6683  0.0282  -2.4568   0.0000   0.2464
  -5.700  -0.6501   0.00607   0.00175   0.0020  0.6562  0.0297  -2.3960   0.0000   0.2465
  -5.600  -0.6387   0.00603   0.00171   0.0019  0.6521  0.0312  -2.3355   0.0000   0.2466
  -5.500  -0.6274   0.00599   0.00167   0.0019  0.6467  0.0327  -2.2759   0.0000   0.2467
  -5.400  -0.6164   0.00595   0.00162   0.0019  0.6365  0.0351  -2.2175   0.0000   0.2469
  -5.300  -0.6051   0.00592   0.00159   0.0019  0.6260  0.0361  -2.1580   0.0000   0.2470
  -5.200  -0.5936   0.00589   0.00155   0.0019  0.6227  0.0363  -2.0992   0.0000   0.2470
  -5.100  -0.5822   0.00587   0.00153   0.0018  0.6174  0.0374  -2.0411   0.0000   0.2471
  -5.000  -0.5709   0.00586   0.00150   0.0018  0.6065  0.0394  -1.9840   0.0000   0.2472
  -4.900  -0.5596   0.00584   0.00147   0.0018  0.5955  0.0414  -1.9273   0.0000   0.2473
  -4.800  -0.5482   0.00579   0.00143   0.0018  0.5929  0.0435  -1.8712   0.0000   0.2474
  -4.700  -0.5369   0.00575   0.00139   0.0018  0.5880  0.0453  -1.8157   0.0000   0.2475
  -4.600  -0.5256   0.00574   0.00137   0.0017  0.5782  0.0464  -1.7607   0.0000   0.2476
  -4.500  -0.5142   0.00573   0.00134   0.0017  0.5668  0.0469  -1.7137   0.0000   0.2476
  -4.400  -0.5027   0.00570   0.00132   0.0016  0.5637  0.0477  -1.6672   0.0000   0.2477
  -4.300  -0.4912   0.00569   0.00129   0.0016  0.5582  0.0505  -1.6213   0.0000   0.2477
  -4.200  -0.4799   0.00567   0.00127   0.0016  0.5486  0.0532  -1.5762   0.0000   0.2478
  -4.100  -0.4686   0.00564   0.00124   0.0016  0.5381  0.0559  -1.5315   0.0000   0.2479
  -4.000  -0.4572   0.00560   0.00120   0.0015  0.5350  0.0580  -1.4869   0.0000   0.2480
  -3.900  -0.4457   0.00558   0.00118   0.0015  0.5304  0.0588  -1.4424   0.0000   0.2480
  -3.800  -0.4344   0.00559   0.00116   0.0015  0.5202  0.0598  -1.3984   0.0000   0.2481
  -3.700  -0.4229   0.00557   0.00114   0.0014  0.5091  0.0640  -1.3549   0.0000   0.2481
  -3.600  -0.4118   0.00549   0.00109   0.0014  0.5061  0.0711  -1.3124   0.0000   0.2483
  -3.500  -0.4003   0.00547   0.00107   0.0014  0.5023  0.0724  -1.2691   0.0000   0.2483
  -3.400  -0.3889   0.00548   0.00105   0.0013  0.4933  0.0755  -1.2267   0.0000   0.2484
  -3.300  -0.3775   0.00546   0.00103   0.0013  0.4818  0.0797  -1.1904   0.0000   0.2484
  -3.200  -0.3661   0.00542   0.00100   0.0013  0.4775  0.0836  -1.1548   0.0000   0.2485
  -3.000  -0.3432   0.00540   0.00097   0.0012  0.4656  0.0869  -1.0841   0.0000   0.2486
  -2.900  -0.3317   0.00539   0.00096   0.0012  0.4548  0.0907  -1.0491   0.0000   0.2486
  -2.800  -0.3202   0.00536   0.00093   0.0011  0.4494  0.0955  -1.0145   0.0000   0.2486
  -2.600  -0.2975   0.00532   0.00089   0.0010  0.4375  0.1025  -0.9468   0.0000   0.2488
  -2.500  -0.2861   0.00531   0.00088   0.0010  0.4273  0.1100  -0.9176   0.0000   0.2488
  -2.400  -0.2748   0.00525   0.00084   0.0010  0.4216  0.1174  -0.8889   0.0000   0.2489
  -2.300  -0.2632   0.00524   0.00083   0.0009  0.4183  0.1194  -0.8598   0.0000   0.2489
  -2.200  -0.2518   0.00525   0.00082   0.0009  0.4103  0.1237  -0.8311   0.0000   0.2489
  -2.100  -0.2404   0.00524   0.00081   0.0009  0.3994  0.1294  -0.8028   0.0000   0.2490
  -1.900  -0.2174   0.00518   0.00078   0.0008  0.3909  0.1378  -0.7520   0.0000   0.2490
  -1.800  -0.2060   0.00518   0.00076   0.0007  0.3831  0.1460  -0.7276   0.0000   0.2491
  -1.700  -0.1948   0.00515   0.00075   0.0007  0.3722  0.1543  -0.7037   0.0000   0.2493
  -1.600  -0.1832   0.00514   0.00073   0.0007  0.3668  0.1564  -0.6803   0.0000   0.2492
  -1.500  -0.1716   0.00513   0.00073   0.0006  0.3636  0.1619  -0.6589   0.0000   0.2491
  -1.400  -0.1603   0.00513   0.00072   0.0006  0.3556  0.1680  -0.6378   0.0000   0.2492
  -1.300  -0.1489   0.00511   0.00071   0.0006  0.3444  0.1745  -0.6170   0.0000   0.2493
  -1.200  -0.1373   0.00510   0.00070   0.0005  0.3401  0.1785  -0.5977   0.0000   0.2492
  -1.100  -0.1260   0.00507   0.00068   0.0005  0.3364  0.1900  -0.5792   0.0000   0.2493
  -1.000  -0.1147   0.00507   0.00068   0.0004  0.3279  0.1959  -0.5608   0.0000   0.2495
  -0.900  -0.1031   0.00508   0.00068   0.0004  0.3169  0.1974  -0.5434   0.0000   0.2494
  -0.800  -0.0915   0.00507   0.00067   0.0003  0.3137  0.2028  -0.5267   0.0000   0.2492
  -0.700  -0.0801   0.00505   0.00066   0.0003  0.3081  0.2128  -0.5104   0.0000   0.2493
  -0.600  -0.0688   0.00505   0.00066   0.0003  0.2990  0.2186  -0.4952   0.0000   0.2496
  -0.500  -0.0572   0.00505   0.00065   0.0002  0.2902  0.2252  -0.4803   0.0000   0.2494
  -0.400  -0.0458   0.00503   0.00064   0.0002  0.2877  0.2341  -0.4655   0.0000   0.2493
  -0.300  -0.0344   0.00504   0.00065   0.0001  0.2795  0.2393  -0.4519   0.0000   0.2497
  -0.200  -0.0229   0.00505   0.00065   0.0001  0.2689  0.2420  -0.4385   0.0000   0.2496
  -0.100  -0.0114   0.00504   0.00064   0.0000  0.2651  0.2521  -0.4251   0.0000   0.2486
   0.100   0.0114   0.00504   0.00064  -0.0000  0.2521  0.2651  -0.4251   0.0000   0.2486
   0.200   0.0229   0.00505   0.00065  -0.0001  0.2420  0.2690  -0.4385   0.0000   0.2496
   0.300   0.0344   0.00504   0.00065  -0.0001  0.2393  0.2795  -0.4519   0.0000   0.2497
   0.400   0.0458   0.00503   0.00064  -0.0002  0.2341  0.2877  -0.4655   0.0000   0.2493
   0.500   0.0572   0.00505   0.00065  -0.0002  0.2251  0.2902  -0.4803   0.0000   0.2494
   0.600   0.0688   0.00505   0.00066  -0.0003  0.2186  0.2990  -0.4952   0.0000   0.2496
   0.700   0.0801   0.00505   0.00066  -0.0003  0.2128  0.3081  -0.5104   0.0000   0.2494
   0.800   0.0915   0.00507   0.00067  -0.0003  0.2028  0.3137  -0.5267   0.0000   0.2492
   0.900   0.1031   0.00508   0.00068  -0.0004  0.1974  0.3169  -0.5434   0.0000   0.2494
   1.000   0.1147   0.00507   0.00068  -0.0004  0.1959  0.3279  -0.5608   0.0000   0.2495
   1.100   0.1260   0.00507   0.00068  -0.0005  0.1900  0.3364  -0.5792   0.0000   0.2493
   1.200   0.1373   0.00510   0.00070  -0.0005  0.1785  0.3401  -0.5977   0.0000   0.2492
   1.300   0.1489   0.00511   0.00071  -0.0006  0.1745  0.3444  -0.6170   0.0000   0.2493
   1.400   0.1603   0.00513   0.00072  -0.0006  0.1680  0.3556  -0.6378   0.0000   0.2492
   1.500   0.1716   0.00513   0.00073  -0.0006  0.1619  0.3636  -0.6589   0.0000   0.2491
   1.600   0.1832   0.00514   0.00073  -0.0007  0.1564  0.3668  -0.6803   0.0000   0.2492
   1.700   0.1948   0.00515   0.00075  -0.0007  0.1543  0.3722  -0.7037   0.0000   0.2493
   1.800   0.2060   0.00518   0.00076  -0.0007  0.1460  0.3831  -0.7276   0.0000   0.2491
   1.900   0.2174   0.00518   0.00078  -0.0008  0.1378  0.3909  -0.7520   0.0000   0.2490
   2.100   0.2404   0.00524   0.00081  -0.0009  0.1294  0.3994  -0.8028   0.0000   0.2490
   2.200   0.2518   0.00525   0.00082  -0.0009  0.1237  0.4103  -0.8311   0.0000   0.2489
   2.300   0.2632   0.00524   0.00083  -0.0009  0.1194  0.4183  -0.8598   0.0000   0.2489
   2.400   0.2748   0.00525   0.00084  -0.0010  0.1174  0.4216  -0.8889   0.0000   0.2489
   2.500   0.2861   0.00531   0.00088  -0.0010  0.1100  0.4274  -0.9176   0.0000   0.2488
   2.600   0.2975   0.00532   0.00089  -0.0010  0.1025  0.4375  -0.9468   0.0000   0.2488
   2.700   0.3089   0.00533   0.00090  -0.0011  0.1000  0.4457  -0.9804   0.0000   0.2487
   2.800   0.3202   0.00536   0.00093  -0.0011  0.0955  0.4494  -1.0145   0.0000   0.2486
   2.900   0.3317   0.00539   0.00096  -0.0012  0.0907  0.4548  -1.0491   0.0000   0.2486
   3.000   0.3432   0.00540   0.00097  -0.0012  0.0869  0.4656  -1.0841   0.0000   0.2486
   3.200   0.3661   0.00542   0.00100  -0.0013  0.0836  0.4775  -1.1548   0.0000   0.2485
   3.300   0.3775   0.00546   0.00103  -0.0013  0.0797  0.4818  -1.1904   0.0000   0.2484
   3.400   0.3889   0.00548   0.00105  -0.0013  0.0755  0.4933  -1.2267   0.0000   0.2484
   3.600   0.4118   0.00549   0.00109  -0.0014  0.0711  0.5061  -1.3124   0.0000   0.2483
   3.700   0.4230   0.00557   0.00114  -0.0014  0.0640  0.5091  -1.3549   0.0000   0.2481
   3.800   0.4344   0.00559   0.00116  -0.0015  0.0598  0.5202  -1.3985   0.0000   0.2481
   3.900   0.4458   0.00558   0.00118  -0.0015  0.0588  0.5304  -1.4424   0.0000   0.2480
   4.000   0.4572   0.00560   0.00120  -0.0015  0.0580  0.5350  -1.4869   0.0000   0.2480
   4.100   0.4687   0.00564   0.00124  -0.0016  0.0559  0.5382  -1.5316   0.0000   0.2479
   4.200   0.4800   0.00567   0.00127  -0.0016  0.0532  0.5486  -1.5763   0.0000   0.2478
   4.300   0.4913   0.00569   0.00129  -0.0016  0.0505  0.5582  -1.6214   0.0000   0.2477
   4.400   0.5027   0.00570   0.00132  -0.0017  0.0477  0.5637  -1.6672   0.0000   0.2477
   4.500   0.5142   0.00573   0.00134  -0.0017  0.0469  0.5669  -1.7138   0.0000   0.2476
   4.600   0.5257   0.00574   0.00137  -0.0017  0.0464  0.5782  -1.7608   0.0000   0.2476
   4.700   0.5369   0.00575   0.00139  -0.0018  0.0453  0.5880  -1.8158   0.0000   0.2475
   4.800   0.5482   0.00579   0.00143  -0.0018  0.0435  0.5929  -1.8713   0.0000   0.2474
   4.900   0.5596   0.00584   0.00147  -0.0018  0.0414  0.5955  -1.9274   0.0000   0.2473
   5.000   0.5709   0.00586   0.00150  -0.0018  0.0394  0.6066  -1.9841   0.0000   0.2472
   5.100   0.5822   0.00587   0.00153  -0.0019  0.0373  0.6174  -2.0412   0.0000   0.2471
   5.200   0.5937   0.00589   0.00155  -0.0019  0.0363  0.6227  -2.0993   0.0000   0.2470
   5.300   0.6051   0.00592   0.00159  -0.0019  0.0361  0.6260  -2.1581   0.0000   0.2470
   5.400   0.6164   0.00595   0.00162  -0.0020  0.0351  0.6365  -2.2176   0.0000   0.2469
   5.500   0.6275   0.00599   0.00167  -0.0019  0.0327  0.6467  -2.2760   0.0000   0.2467
   5.600   0.6387   0.00603   0.00171  -0.0019  0.0312  0.6521  -2.3356   0.0000   0.2466
   5.700   0.6501   0.00607   0.00175  -0.0020  0.0297  0.6562  -2.3961   0.0000   0.2465
   5.800   0.6614   0.00609   0.00178  -0.0020  0.0282  0.6683  -2.4569   0.0000   0.2464
   5.900   0.6727   0.00610   0.00181  -0.0020  0.0270  0.6775  -2.5183   0.0000   0.2463
   6.000   0.6841   0.00613   0.00185  -0.0020  0.0268  0.6819  -2.5806   0.0000   0.2462
   6.100   0.6955   0.00616   0.00189  -0.0021  0.0267  0.6865  -2.6434   0.0000   0.2462
   6.200   0.7068   0.00617   0.00192  -0.0021  0.0265  0.6988  -2.7064   0.0000   0.2461
   6.300   0.7180   0.00619   0.00195  -0.0021  0.0262  0.7076  -2.7698   0.0000   0.2460
   6.400   0.7293   0.00623   0.00199  -0.0021  0.0256  0.7119  -2.8338   0.0000   0.2458
   6.500   0.7405   0.00628   0.00205  -0.0021  0.0246  0.7198  -2.8979   0.0000   0.2457
   6.600   0.7515   0.00632   0.00209  -0.0021  0.0237  0.7305  -2.9621   0.0000   0.2456
   6.700   0.7627   0.00636   0.00214  -0.0021  0.0227  0.7377  -3.0270   0.0000   0.2454
   6.800   0.7739   0.00640   0.00218  -0.0021  0.0218  0.7413  -3.0972   0.0000   0.2453
   6.900   0.7852   0.00644   0.00223  -0.0021  0.0208  0.7519  -3.1751   0.0000   0.2452
   7.000   0.7963   0.00646   0.00227  -0.0021  0.0199  0.7628  -3.2534   0.0000   0.2451
   7.100   0.8076   0.00649   0.00231  -0.0021  0.0192  0.7679  -3.3336   0.0000   0.2449
   7.200   0.8189   0.00653   0.00236  -0.0022  0.0188  0.7722  -3.4142   0.0000   0.2448
   7.300   0.8301   0.00655   0.00239  -0.0022  0.0188  0.7837  -3.4951   0.0000   0.2447
   7.400   0.8412   0.00657   0.00243  -0.0022  0.0187  0.7924  -3.5766   0.0000   0.2446
   7.500   0.8525   0.00661   0.00248  -0.0022  0.0187  0.7969  -3.6591   0.0000   0.2445
   7.600   0.8637   0.00664   0.00252  -0.0022  0.0186  0.8051  -3.7422   0.0000   0.2443
   7.700   0.8748   0.00666   0.00257  -0.0022  0.0185  0.8159  -3.8255   0.0000   0.2442
   7.800   0.8859   0.00670   0.00261  -0.0022  0.0183  0.8219  -3.9097   0.0000   0.2441
   7.900   0.8971   0.00675   0.00266  -0.0022  0.0181  0.8253  -3.9947   0.0000   0.2439
   8.000   0.9081   0.00679   0.00272  -0.0022  0.0177  0.8359  -4.0797   0.0000   0.2438
   8.100   0.9190   0.00684   0.00278  -0.0021  0.0170  0.8448  -4.1646   0.0000   0.2436
   8.200   0.9299   0.00691   0.00285  -0.0021  0.0163  0.8497  -4.2501   0.0000   0.2434
   8.300   0.9408   0.00699   0.00292  -0.0021  0.0154  0.8551  -4.3365   0.0000   0.2432
   8.400   0.9517   0.00703   0.00298  -0.0020  0.0146  0.8654  -4.4233   0.0000   0.2431
   8.500   0.9627   0.00708   0.00303  -0.0020  0.0138  0.8724  -4.5112   0.0000   0.2429
   8.600   0.9737   0.00713   0.00309  -0.0020  0.0131  0.8759  -4.6003   0.0000   0.2427
   8.700   0.9848   0.00718   0.00315  -0.0019  0.0126  0.8831  -4.6900   0.0000   0.2426
   8.800   0.9957   0.00722   0.00320  -0.0019  0.0123  0.8920  -4.7793   0.0000   0.2424
   8.900   1.0066   0.00726   0.00325  -0.0019  0.0121  0.8977  -4.8702   0.0000   0.2422
   9.000   1.0177   0.00731   0.00331  -0.0019  0.0121  0.9005  -4.9624   0.0000   0.2421
   9.100   1.0287   0.00735   0.00336  -0.0018  0.0121  0.9080  -5.0548   0.0000   0.2419
   9.200   1.0395   0.00739   0.00342  -0.0018  0.0121  0.9157  -5.1474   0.0000   0.2417
   9.300   1.0504   0.00744   0.00347  -0.0017  0.0121  0.9207  -5.2410   0.0000   0.2415
   9.400   1.0614   0.00749   0.00353  -0.0017  0.0120  0.9231  -5.3357   0.0000   0.2414
   9.500   1.0723   0.00754   0.00359  -0.0017  0.0120  0.9292  -5.4305   0.0000   0.2412
   9.600   1.0830   0.00758   0.00364  -0.0016  0.0120  0.9362  -5.5252   0.0000   0.2409
   9.700   1.0937   0.00763   0.00370  -0.0015  0.0120  0.9411  -5.6210   0.0000   0.2407
   9.800   1.1046   0.00769   0.00376  -0.0015  0.0119  0.9436  -5.7180   0.0000   0.2406
   9.900   1.1155   0.00775   0.00382  -0.0014  0.0119  0.9468  -5.8155   0.0000   0.2404
  10.000   1.1260   0.00780   0.00388  -0.0013  0.0119  0.9531  -5.9122   0.0000   0.2401
  10.100   1.1366   0.00785   0.00394  -0.0012  0.0118  0.9581  -6.0096   0.0000   0.2399
  10.200   1.1473   0.00791   0.00401  -0.0011  0.0118  0.9612  -6.1084   0.0000   0.2397
  10.300   1.1580   0.00798   0.00407  -0.0010  0.0117  0.9630  -6.2083   0.0000   0.2395
  10.400   1.1686   0.00805   0.00414  -0.0010  0.0116  0.9663  -6.3079   0.0000   0.2393
  10.500   1.1788   0.00811   0.00421  -0.0008  0.0115  0.9712  -6.4066   0.0000   0.2389
  10.600   1.1890   0.00819   0.00429  -0.0006  0.0113  0.9751  -6.5058   0.0000   0.2387
  10.700   1.1993   0.00827   0.00437  -0.0004  0.0110  0.9777  -6.6060   0.0000   0.2384
  10.800   1.2097   0.00837   0.00446  -0.0003  0.0107  0.9793  -6.7072   0.0000   0.2382
  10.900   1.2200   0.00846   0.00455  -0.0002  0.0103  0.9814  -6.8083   0.0000   0.2379
  11.000   1.2300   0.00855   0.00464   0.0000  0.0100  0.9850  -6.9082   0.0000   0.2376
  11.100   1.2401   0.00864   0.00473   0.0002  0.0097  0.9879  -7.0093   0.0000   0.2373
  11.200   1.2503   0.00873   0.00481   0.0004  0.0094  0.9901  -7.1116   0.0000   0.2370
  11.300   1.2606   0.00882   0.00490   0.0005  0.0091  0.9915  -7.2150   0.0000   0.2368
  11.400   1.2709   0.00891   0.00498   0.0006  0.0088  0.9926  -7.3190   0.0000   0.2365
  11.600   1.2937   0.00909   0.00515   0.0004  0.0082  0.9945  -7.5396   0.0000   0.2364
  11.700   1.3054   0.00918   0.00523   0.0002  0.0079  0.9954  -7.6518   0.0000   0.2364
  11.800   1.3169   0.00927   0.00532   0.0000  0.0076  0.9962  -7.7642   0.0000   0.2364
  11.900   1.3284   0.00936   0.00540  -0.0001  0.0073  0.9970  -7.8769   0.0000   0.2363
  12.000   1.3398   0.00945   0.00549  -0.0002  0.0070  0.9977  -7.9896   0.0000   0.2363
  12.100   1.3511   0.00954   0.00558  -0.0004  0.0069  0.9983  -8.1092   0.0000   0.2362
  12.200   1.3624   0.00962   0.00566  -0.0005  0.0069  0.9989  -8.2398   0.0000   0.2361
  12.300   1.3737   0.00971   0.00575  -0.0006  0.0069  0.9994  -8.3709   0.0000   0.2360
  12.400   1.3849   0.00980   0.00583  -0.0007  0.0069  0.9997  -8.5026   0.0000   0.2359
  12.500   1.3960   0.00989   0.00592  -0.0007  0.0069  1.0000  -8.6339   0.0000   0.2358
  12.600   1.4060   0.00997   0.00600  -0.0005  0.0069  1.0000  -8.7601   0.0000   0.2355
  12.700   1.4160   0.01006   0.00609  -0.0004  0.0068  1.0000  -8.8874   0.0000   0.2352
  12.800   1.4261   0.01015   0.00617  -0.0002  0.0068  1.0000  -9.0156   0.0000   0.2350
  12.900   1.4362   0.01023   0.00626  -0.0001  0.0068  1.0000  -9.1448   0.0000   0.2347
  13.000   1.4463   0.01032   0.00635   0.0000  0.0068  1.0000  -9.2747   0.0000   0.2344
  13.100   1.4564   0.01042   0.00644   0.0002  0.0068  1.0000  -9.4054   0.0000   0.2342
  13.200   1.4665   0.01051   0.00653   0.0003  0.0068  1.0000  -9.5368   0.0000   0.2339
  13.300   1.4766   0.01060   0.00662   0.0005  0.0068  1.0000  -9.6689   0.0000   0.2337
  13.400   1.4867   0.01069   0.00672   0.0006  0.0068  1.0000  -9.8017   0.0000   0.2334
  13.500   1.4967   0.01079   0.00681   0.0007  0.0068  1.0000  -9.9352   0.0000   0.2331
  13.600   1.5067   0.01088   0.00690   0.0009  0.0068  1.0000  -10.0693   0.0000   0.2329
  13.700   1.5167   0.01098   0.00700   0.0010  0.0068  1.0000  -10.2040   0.0000   0.2326
  13.800   1.5267   0.01108   0.00710   0.0012  0.0068  1.0000  -10.3393   0.0000   0.2323
  13.900   1.5367   0.01118   0.00720   0.0013  0.0068  1.0000  -10.4753   0.0000   0.2321
  14.000   1.5466   0.01128   0.00730   0.0015  0.0068  1.0000  -10.6115   0.0000   0.2318
  14.100   1.5565   0.01138   0.00740   0.0016  0.0068  1.0000  -10.7486   0.0000   0.2315
  14.200   1.5663   0.01148   0.00751   0.0018  0.0068  1.0000  -10.8862   0.0000   0.2312
  14.300   1.5762   0.01159   0.00761   0.0019  0.0068  1.0000  -11.0244   0.0000   0.2310
  14.400   1.5860   0.01169   0.00771   0.0021  0.0068  1.0000  -11.1631   0.0000   0.2307
  14.500   1.5957   0.01180   0.00782   0.0023  0.0067  1.0000  -11.3023   0.0000   0.2304
  14.600   1.6055   0.01191   0.00793   0.0024  0.0067  1.0000  -11.4421   0.0000   0.2301
  14.700   1.6151   0.01202   0.00804   0.0026  0.0067  1.0000  -11.5823   0.0000   0.2298
  14.800   1.6248   0.01213   0.00815   0.0028  0.0067  1.0000  -11.7230   0.0000   0.2296
  14.900   1.6344   0.01224   0.00826   0.0030  0.0067  1.0000  -11.8642   0.0000   0.2293
  15.000   1.6440   0.01235   0.00837   0.0032  0.0067  1.0000  -12.0058   0.0000   0.2290
  15.100   1.6535   0.01246   0.00849   0.0034  0.0067  1.0000  -12.1478   0.0000   0.2287
  15.200   1.6630   0.01258   0.00861   0.0036  0.0067  1.0000  -12.2902   0.0000   0.2284
  15.300   1.6724   0.01269   0.00872   0.0038  0.0067  1.0000  -12.4331   0.0000   0.2281
  15.400   1.6818   0.01281   0.00884   0.0040  0.0067  1.0000  -12.5763   0.0000   0.2278
  15.500   1.6911   0.01293   0.00896   0.0042  0.0067  1.0000  -12.7198   0.0000   0.2275
  15.600   1.7004   0.01305   0.00909   0.0044  0.0067  1.0000  -12.8637   0.0000   0.2271
  15.700   1.7096   0.01318   0.00921   0.0047  0.0067  1.0000  -13.0081   0.0000   0.2268
  15.800   1.7188   0.01330   0.00934   0.0049  0.0067  1.0000  -13.1527   0.0000   0.2265
  15.900   1.7279   0.01343   0.00947   0.0051  0.0067  1.0000  -13.2975   0.0000   0.2262
  16.000   1.7369   0.01355   0.00960   0.0054  0.0066  1.0000  -13.4425   0.0000   0.2258
  16.100   1.7459   0.01368   0.00973   0.0056  0.0066  1.0000  -13.5878   0.0000   0.2255
  16.200   1.7549   0.01381   0.00986   0.0059  0.0066  1.0000  -13.7332   0.0000   0.2252
  16.300   1.7637   0.01395   0.00999   0.0062  0.0066  1.0000  -13.8788   0.0000   0.2248
  16.400   1.7725   0.01408   0.01013   0.0065  0.0066  1.0000  -14.0246   0.0000   0.2245
  16.500   1.7812   0.01422   0.01027   0.0068  0.0066  1.0000  -14.1704   0.0000   0.2241
  16.600   1.7899   0.01436   0.01041   0.0071  0.0066  1.0000  -14.3163   0.0000   0.2238
  16.700   1.7984   0.01450   0.01056   0.0074  0.0066  1.0000  -14.4623   0.0000   0.2234
  16.800   1.8069   0.01464   0.01070   0.0077  0.0066  1.0000  -14.6081   0.0000   0.2231
  16.900   1.8153   0.01479   0.01085   0.0081  0.0065  1.0000  -14.7539   0.0000   0.2227
  17.000   1.8235   0.01493   0.01100   0.0084  0.0065  1.0000  -14.8995   0.0000   0.2223
  17.100   1.8317   0.01509   0.01116   0.0088  0.0065  1.0000  -15.0450   0.0000   0.2219
  17.200   1.8397   0.01524   0.01132   0.0091  0.0065  1.0000  -15.1902   0.0000   0.2215
  17.300   1.8477   0.01540   0.01148   0.0095  0.0065  1.0000  -15.3350   0.0000   0.2211
  17.400   1.8555   0.01556   0.01164   0.0099  0.0065  1.0000  -15.4794   0.0000   0.2207
  17.500   1.8632   0.01572   0.01181   0.0104  0.0064  1.0000  -15.6233   0.0000   0.2203
  17.600   1.8706   0.01589   0.01199   0.0108  0.0064  1.0000  -15.7658   0.0000   0.2199
  17.700   1.8777   0.01607   0.01216   0.0114  0.0064  1.0000  -15.9062   0.0000   0.2194
  17.800   1.8845   0.01624   0.01234   0.0119  0.0063  1.0000  -16.0447   0.0000   0.2189
  17.900   1.8905   0.01643   0.01253   0.0126  0.0063  1.0000  -16.1772   0.0000   0.2183
  18.000   1.8955   0.01662   0.01273   0.0135  0.0062  1.0000  -16.3032   0.0000   0.2177
  18.100   1.9001   0.01682   0.01293   0.0145  0.0062  1.0000  -16.4250   0.0000   0.2170
  18.200   1.9048   0.01703   0.01315   0.0154  0.0061  1.0000  -16.5480   0.0000   0.2163
  18.300   1.9093   0.01727   0.01339   0.0162  0.0061  1.0000  -16.6701   0.0000   0.2157
  18.400   1.9135   0.01751   0.01364   0.0172  0.0060  1.0000  -16.7894   0.0000   0.2150
  18.500   1.9178   0.01776   0.01390   0.0180  0.0059  1.0000  -16.9102   0.0000   0.2144
  18.600   1.9219   0.01804   0.01418   0.0189  0.0058  1.0000  -17.0288   0.0000   0.2137
  18.700   1.9261   0.01832   0.01447   0.0197  0.0057  1.0000  -17.1483   0.0000   0.2131
  18.800   1.9303   0.01861   0.01477   0.0205  0.0057  1.0000  -17.2682   0.0000   0.2125
  18.900   1.9336   0.01893   0.01509   0.0213  0.0056  1.0000  -17.3811   0.0000   0.2118
  19.000   1.9373   0.01925   0.01542   0.0221  0.0055  1.0000  -17.4969   0.0000   0.2112
  19.100   1.9413   0.01958   0.01576   0.0228  0.0054  1.0000  -17.6154   0.0000   0.2107
  19.200   1.9445   0.01994   0.01613   0.0236  0.0054  1.0000  -17.7276   0.0000   0.2101
  19.300   1.9481   0.02031   0.01651   0.0243  0.0053  1.0000  -17.8432   0.0000   0.2095
  19.400   1.9517   0.02067   0.01688   0.0250  0.0052  1.0000  -17.9586   0.0000   0.2089
  19.500   1.9542   0.02109   0.01731   0.0257  0.0051  1.0000  -18.0642   0.0000   0.2083
  19.600   1.9573   0.02150   0.01773   0.0264  0.0051  1.0000  -18.1762   0.0000   0.2078
  19.700   1.9607   0.02191   0.01815   0.0270  0.0050  1.0000  -18.2901   0.0000   0.2073
  19.800   1.9631   0.02240   0.01865   0.0276  0.0049  1.0000  -18.3950   0.0000   0.2067
  19.900   1.9662   0.02285   0.01912   0.0282  0.0049  1.0000  -18.5071   0.0000   0.2062
  20.000   1.9694   0.02332   0.01960   0.0287  0.0048  1.0000  -18.6194   0.0000   0.2058


