xflr5 v6.32

 Calculated polar for: NACA 0012

 1 1 Reynolds number fixed          Mach number fixed         

 xtrf =   1.000 (top)        1.000 (bottom)
 Mach =   0.000     Re =     0.160 e 6     Ncrit =   9.000

  alpha     CL        CD       CDp       Cm    Top Xtr Bot Xtr   Cpmin    Chinge    XCp    
 ------- -------- --------- --------- -------- ------- ------- -------- --------- ---------
 -15.000  -0.7044   0.17461   0.17022   0.0193  1.0000  0.0725  -2.0901   0.0000   0.2621
 -14.900  -0.7045   0.17259   0.16821   0.0182  1.0000  0.0726  -2.1131   0.0000   0.2605
 -14.800  -0.6978   0.16904   0.16466   0.0200  1.0000  0.0734  -2.0535   0.0000   0.2634
 -14.700  -0.6907   0.16772   0.16333   0.0209  1.0000  0.0739  -1.9942   0.0000   0.2652
 -14.600  -0.6841   0.16661   0.16221   0.0216  1.0000  0.0744  -1.9419   0.0000   0.2666
 -14.500  -0.6780   0.16553   0.16113   0.0220  1.0000  0.0749  -1.8958   0.0000   0.2677
 -14.400  -0.6725   0.16443   0.16002   0.0223  1.0000  0.0756  -1.8563   0.0000   0.2685
 -14.300  -0.6678   0.16327   0.15885   0.0224  1.0000  0.0764  -1.8247   0.0000   0.2690
 -14.200  -0.6640   0.16204   0.15763   0.0222  1.0000  0.0772  -1.8016   0.0000   0.2691
 -14.100  -0.6612   0.16074   0.15632   0.0220  1.0000  0.0782  -1.7858   0.0000   0.2689
 -14.000  -0.6591   0.15933   0.15491   0.0215  1.0000  0.0793  -1.7771   0.0000   0.2684
 -13.900  -0.6579   0.15781   0.15340   0.0209  1.0000  0.0806  -1.7812   0.0000   0.2676
 -13.800  -0.6579   0.15616   0.15174   0.0200  1.0000  0.0820  -1.7996   0.0000   0.2664
 -13.700  -0.6605   0.15419   0.14978   0.0185  1.0000  0.0838  -1.8391   0.0000   0.2641
 -13.600  -0.6803   0.15065   0.14629   0.0126  1.0000  0.0864  -2.0187   0.0000   0.2547
 -13.500  -0.6883   0.14792   0.14357   0.0098  1.0000  0.0867  -2.1024   0.0000   0.2505
 -13.400  -0.6925   0.14537   0.14104   0.0079  1.0000  0.0869  -2.1580   0.0000   0.2478
 -13.300  -0.6951   0.14290   0.13857   0.0064  1.0000  0.0870  -2.2019   0.0000   0.2456
 -13.200  -0.6975   0.14034   0.13603   0.0050  1.0000  0.0871  -2.2443   0.0000   0.2436
 -13.100  -0.7018   0.13639   0.13210   0.0043  1.0000  0.0876  -2.2874   0.0000   0.2427
 -13.000  -0.6918   0.13551   0.13120   0.0064  1.0000  0.0882  -2.2173   0.0000   0.2460
 -12.900  -0.6857   0.13453   0.13021   0.0073  1.0000  0.0887  -2.1789   0.0000   0.2474
 -12.800  -0.6800   0.13357   0.12924   0.0079  1.0000  0.0892  -2.1459   0.0000   0.2485
 -12.700  -0.6765   0.13229   0.12796   0.0080  1.0000  0.0896  -2.1298   0.0000   0.2488
 -12.600  -0.6741   0.13083   0.12649   0.0078  1.0000  0.0900  -2.1229   0.0000   0.2488
 -12.500  -0.6611   0.13174   0.12739   0.0098  1.0000  0.0921  -2.0212   0.0000   0.2522
 -12.400  -0.6559   0.13116   0.12680   0.0101  1.0000  0.0942  -1.9847   0.0000   0.2529
 -12.300  -0.6554   0.12963   0.12528   0.0095  1.0000  0.0961  -1.9871   0.0000   0.2521
 -12.200  -0.6574   0.12756   0.12321   0.0083  1.0000  0.0976  -2.0116   0.0000   0.2504
 -12.100  -0.6614   0.12510   0.12077   0.0068  1.0000  0.0987  -2.0511   0.0000   0.2481
 -12.000  -0.6656   0.12249   0.11817   0.0053  1.0000  0.0993  -2.0939   0.0000   0.2458
 -11.900  -0.6679   0.12011   0.11580   0.0043  1.0000  0.0992  -2.1220   0.0000   0.2443
 -11.800  -0.6679   0.11798   0.11367   0.0039  1.0000  0.0978  -2.1350   0.0000   0.2438
 -11.700  -1.0272   0.05118   0.04518  -0.0313  1.0000  0.0465  -4.9311   0.0000   0.2067
 -11.600  -1.0317   0.05010   0.04397  -0.0301  1.0000  0.0466  -4.9374   0.0000   0.2081
 -11.500  -1.0347   0.04903   0.04278  -0.0291  1.0000  0.0467  -4.9383   0.0000   0.2094
 -11.400  -1.0367   0.04802   0.04164  -0.0280  1.0000  0.0469  -4.9345   0.0000   0.2106
 -11.300  -1.0377   0.04710   0.04059  -0.0270  1.0000  0.0470  -4.9256   0.0000   0.2117
 -11.100  -1.0417   0.04413   0.03734  -0.0250  1.0000  0.0474  -4.9364   0.0000   0.2139
 -11.000  -1.0429   0.04225   0.03531  -0.0242  1.0000  0.0478  -4.9451   0.0000   0.2149
 -10.900  -1.0417   0.04067   0.03363  -0.0235  1.0000  0.0482  -4.9356   0.0000   0.2156
 -10.800  -1.0383   0.03943   0.03232  -0.0229  1.0000  0.0487  -4.9085   0.0000   0.2162
 -10.700  -1.0335   0.03851   0.03136  -0.0224  1.0000  0.0493  -4.8663   0.0000   0.2167
 -10.600  -1.0277   0.03788   0.03073  -0.0219  1.0000  0.0500  -4.8110   0.0000   0.2172
 -10.500  -1.0217   0.03740   0.03024  -0.0215  1.0000  0.0508  -4.7517   0.0000   0.2176
 -10.400  -1.0158   0.03696   0.02978  -0.0210  1.0000  0.0517  -4.6941   0.0000   0.2181
 -10.300  -1.0102   0.03650   0.02927  -0.0204  1.0000  0.0527  -4.6405   0.0000   0.2187
 -10.200  -1.0042   0.03601   0.02874  -0.0199  1.0000  0.0536  -4.5883   0.0000   0.2192
 -10.100  -0.9985   0.03545   0.02810  -0.0193  1.0000  0.0546  -4.5419   0.0000   0.2198
 -10.000  -0.9929   0.03483   0.02739  -0.0186  1.0000  0.0556  -4.4998   0.0000   0.2205
  -9.900  -0.9872   0.03419   0.02664  -0.0180  1.0000  0.0565  -4.4605   0.0000   0.2212
  -9.800  -0.9813   0.03354   0.02587  -0.0173  1.0000  0.0573  -4.4221   0.0000   0.2219
  -9.700  -0.9751   0.03292   0.02512  -0.0166  1.0000  0.0580  -4.3833   0.0000   0.2225
  -9.600  -0.9686   0.03233   0.02442  -0.0160  1.0000  0.0586  -4.3429   0.0000   0.2232
  -9.500  -0.9619   0.03185   0.02381  -0.0153  1.0000  0.0591  -4.2992   0.0000   0.2239
  -9.400  -0.9557   0.03027   0.02210  -0.0149  1.0000  0.0601  -4.2776   0.0000   0.2243
  -9.300  -0.9482   0.02918   0.02099  -0.0146  1.0000  0.0613  -4.2329   0.0000   0.2246
  -9.200  -0.9403   0.02853   0.02034  -0.0142  1.0000  0.0623  -4.1771   0.0000   0.2250
  -9.100  -0.9324   0.02802   0.01984  -0.0138  1.0000  0.0634  -4.1192   0.0000   0.2254
  -9.000  -0.9245   0.02756   0.01936  -0.0134  1.0000  0.0646  -4.0617   0.0000   0.2258
  -8.900  -0.9165   0.02711   0.01888  -0.0129  1.0000  0.0658  -4.0053   0.0000   0.2263
  -8.800  -0.9085   0.02666   0.01839  -0.0125  1.0000  0.0671  -3.9504   0.0000   0.2268
  -8.700  -0.9005   0.02621   0.01788  -0.0120  1.0000  0.0685  -3.8965   0.0000   0.2273
  -8.600  -0.8924   0.02578   0.01738  -0.0115  1.0000  0.0699  -3.8427   0.0000   0.2279
  -8.500  -0.8841   0.02539   0.01692  -0.0110  1.0000  0.0712  -3.7884   0.0000   0.2284
  -8.400  -0.8758   0.02509   0.01653  -0.0104  1.0000  0.0723  -3.7330   0.0000   0.2290
  -8.300  -0.8680   0.02408   0.01556  -0.0101  1.0000  0.0745  -3.6862   0.0000   0.2294
  -8.200  -0.8605   0.02360   0.01512  -0.0096  1.0000  0.0766  -3.6262   0.0000   0.2299
  -8.100  -0.8526   0.02330   0.01485  -0.0092  1.0000  0.0787  -3.5637   0.0000   0.2305
  -8.000  -0.8446   0.02303   0.01458  -0.0087  1.0000  0.0811  -3.5028   0.0000   0.2310
  -7.900  -0.8365   0.02275   0.01426  -0.0082  1.0000  0.0835  -3.4443   0.0000   0.2316
  -7.800  -0.8283   0.02251   0.01393  -0.0076  1.0000  0.0858  -3.3872   0.0000   0.2323
  -7.700  -0.8202   0.02205   0.01344  -0.0071  1.0000  0.0879  -3.3339   0.0000   0.2329
  -7.600  -0.8130   0.02137   0.01286  -0.0066  1.0000  0.0907  -3.2816   0.0000   0.2336
  -7.500  -0.8054   0.02102   0.01253  -0.0060  1.0000  0.0932  -3.2238   0.0000   0.2343
  -7.400  -0.7975   0.02071   0.01223  -0.0055  1.0000  0.0960  -3.1660   0.0000   0.2350
  -7.300  -0.7894   0.02042   0.01186  -0.0049  1.0000  0.0991  -3.1069   0.0000   0.2358
  -7.200  -0.7810   0.02018   0.01156  -0.0044  1.0000  0.1020  -3.0508   0.0000   0.2365
  -7.100  -0.7742   0.01961   0.01105  -0.0037  1.0000  0.1055  -3.0014   0.0000   0.2374
  -7.000  -0.7672   0.01924   0.01074  -0.0030  1.0000  0.1091  -2.9488   0.0000   0.2383
  -6.900  -0.7595   0.01898   0.01049  -0.0025  1.0000  0.1133  -2.9024   0.0000   0.2391
  -6.800  -0.7512   0.01878   0.01024  -0.0019  1.0000  0.1179  -2.8558   0.0000   0.2399
  -6.700  -0.7444   0.01836   0.00988  -0.0012  1.0000  0.1229  -2.8139   0.0000   0.2409
  -6.600  -0.7372   0.01805   0.00964  -0.0006  1.0000  0.1282  -2.7678   0.0000   0.2419
  -6.500  -0.7292   0.01784   0.00941  -0.0000  1.0000  0.1343  -2.7210   0.0000   0.2427
  -6.400  -0.7219   0.01750   0.00910   0.0006  1.0000  0.1405  -2.6778   0.0000   0.2437
  -6.300  -0.7150   0.01717   0.00886   0.0013  1.0000  0.1472  -2.6329   0.0000   0.2447
  -6.200  -0.7068   0.01696   0.00863   0.0019  1.0000  0.1548  -2.5865   0.0000   0.2456
  -6.100  -0.7001   0.01659   0.00835   0.0026  1.0000  0.1627  -2.5438   0.0000   0.2468
  -6.000  -0.6926   0.01634   0.00814   0.0032  1.0000  0.1715  -2.4980   0.0000   0.2478
  -5.900  -0.6852   0.01605   0.00790   0.0038  1.0000  0.1811  -2.4534   0.0000   0.2488
  -5.800  -0.6778   0.01579   0.00772   0.0044  1.0000  0.1918  -2.4075   0.0000   0.2499
  -5.700  -0.6704   0.01553   0.00752   0.0051  1.0000  0.2031  -2.3621   0.0000   0.2510
  -5.600  -0.6628   0.01530   0.00735   0.0056  1.0000  0.2158  -2.3156   0.0000   0.2520
  -5.500  -0.6556   0.01504   0.00718   0.0063  1.0000  0.2284  -2.2702   0.0000   0.2532
  -5.300  -0.6404   0.01459   0.00688   0.0074  1.0000  0.2561  -2.1774   0.0000   0.2554
  -5.200  -0.6325   0.01440   0.00674   0.0080  1.0000  0.2703  -2.1297   0.0000   0.2565
  -5.100  -0.6248   0.01420   0.00657   0.0086  1.0000  0.2850  -2.0822   0.0000   0.2577
  -5.000  -0.6171   0.01401   0.00645   0.0091  1.0000  0.2993  -2.0360   0.0000   0.2589
  -4.900  -0.6088   0.01387   0.00634   0.0096  1.0000  0.3148  -1.9889   0.0000   0.2600
  -4.800  -0.6013   0.01367   0.00625   0.0102  1.0000  0.3294  -1.9434   0.0000   0.2612
  -4.700  -0.5930   0.01353   0.00615   0.0107  1.0000  0.3445  -1.8966   0.0000   0.2624
  -4.600  -0.5851   0.01337   0.00607   0.0113  1.0000  0.3596  -1.8508   0.0000   0.2637
  -4.500  -0.5769   0.01323   0.00599   0.0118  1.0000  0.3740  -1.8074   0.0000   0.2649
  -4.400  -0.5687   0.01310   0.00592   0.0123  1.0000  0.3892  -1.7684   0.0000   0.2662
  -4.300  -0.5605   0.01297   0.00585   0.0128  1.0000  0.4035  -1.7296   0.0000   0.2675
  -4.200  -0.5521   0.01286   0.00579   0.0133  1.0000  0.4187  -1.6906   0.0000   0.2688
  -4.100  -0.5438   0.01273   0.00574   0.0138  1.0000  0.4326  -1.6520   0.0000   0.2702
  -4.000  -0.5352   0.01265   0.00568   0.0143  1.0000  0.4476  -1.6132   0.0000   0.2715
  -3.900  -0.5269   0.01252   0.00565   0.0148  1.0000  0.4613  -1.5748   0.0000   0.2729
  -3.800  -0.5182   0.01245   0.00560   0.0152  1.0000  0.4764  -1.5363   0.0000   0.2743
  -3.700  -0.5097   0.01234   0.00558   0.0157  1.0000  0.4900  -1.4982   0.0000   0.2758
  -3.600  -0.5010   0.01227   0.00554   0.0161  1.0000  0.5049  -1.4600   0.0000   0.2773
  -3.500  -0.4924   0.01217   0.00552   0.0166  1.0000  0.5181  -1.4221   0.0000   0.2789
  -3.400  -0.4836   0.01212   0.00550   0.0170  1.0000  0.5329  -1.3842   0.0000   0.2804
  -3.300  -0.4748   0.01203   0.00550   0.0174  1.0000  0.5464  -1.3463   0.0000   0.2821
  -3.200  -0.4659   0.01198   0.00549   0.0178  1.0000  0.5612  -1.3085   0.0000   0.2837
  -3.100  -0.4569   0.01191   0.00545   0.0182  1.0000  0.5745  -1.2701   0.0000   0.2854
  -3.000  -0.4480   0.01187   0.00545   0.0186  1.0000  0.5889  -1.2383   0.0000   0.2872
  -2.900  -0.4390   0.01182   0.00546   0.0190  1.0000  0.6024  -1.2066   0.0000   0.2890
  -2.800  -0.4301   0.01177   0.00548   0.0194  1.0000  0.6167  -1.1752   0.0000   0.2909
  -2.700  -0.4212   0.01174   0.00549   0.0198  1.0000  0.6302  -1.1440   0.0000   0.2929
  -2.600  -0.4123   0.01170   0.00553   0.0203  1.0000  0.6442  -1.1131   0.0000   0.2950
  -2.500  -0.4034   0.01169   0.00555   0.0206  1.0000  0.6579  -1.0824   0.0000   0.2971
  -2.400  -0.3947   0.01166   0.00560   0.0211  1.0000  0.6715  -1.0521   0.0000   0.2995
  -2.300  -0.3858   0.01166   0.00563   0.0215  1.0000  0.6856  -1.0220   0.0000   0.3018
  -2.200  -0.3772   0.01164   0.00570   0.0220  1.0000  0.6988  -0.9922   0.0000   0.3045
  -2.000  -0.3600   0.01166   0.00583   0.0230  1.0000  0.7258  -0.9405   0.0000   0.3101
  -1.800  -0.3279   0.01170   0.00598   0.0211  0.9949  0.7556  -0.8702   0.0000   0.3106
  -1.700  -0.3098   0.01175   0.00605   0.0197  0.9919  0.7711  -0.8331   0.0000   0.3100
  -1.600  -0.2936   0.01176   0.00613   0.0189  0.9880  0.7840  -0.8011   0.0000   0.3107
  -1.500  -0.2759   0.01179   0.00618   0.0176  0.9842  0.7986  -0.7692   0.0000   0.3103
  -1.400  -0.2576   0.01185   0.00630   0.0164  0.9813  0.8105  -0.7368   0.0000   0.3103
  -1.300  -0.2414   0.01187   0.00630   0.0155  0.9773  0.8241  -0.7074   0.0000   0.3108
  -1.200  -0.2260   0.01191   0.00639   0.0149  0.9728  0.8343  -0.6818   0.0000   0.3128
  -1.100  -0.2086   0.01194   0.00644   0.0139  0.9688  0.8464  -0.6546   0.0000   0.3133
  -1.000  -0.1895   0.01199   0.00650   0.0126  0.9658  0.8564  -0.6262   0.0000   0.3130
  -0.900  -0.1693   0.01206   0.00659   0.0111  0.9636  0.8658  -0.5995   0.0000   0.3120
  -0.800  -0.1577   0.01206   0.00659   0.0112  0.9571  0.8770  -0.5807   0.0000   0.3175
  -0.700  -0.1388   0.01213   0.00668   0.0100  0.9534  0.8839  -0.5566   0.0000   0.3187
  -0.600  -0.1189   0.01217   0.00673   0.0085  0.9502  0.8919  -0.5330   0.0000   0.3186
  -0.500  -0.0993   0.01218   0.00674   0.0070  0.9473  0.9009  -0.5106   0.0000   0.3179
  -0.400  -0.0758   0.01224   0.00679   0.0049  0.9455  0.9054  -0.4867   0.0000   0.3120
  -0.300  -0.0579   0.01228   0.00684   0.0039  0.9407  0.9112  -0.4671   0.0000   0.3148
  -0.200  -0.0414   0.01229   0.00686   0.0032  0.9351  0.9181  -0.4502   0.0000   0.3236
  -0.100  -0.0237   0.01229   0.00685   0.0021  0.9306  0.9245  -0.4326   0.0000   0.3380
   0.000   0.0000   0.01229   0.00686  -0.0000  0.9275  0.9275  -0.4120   0.0000   2.0192
   0.100   0.0236   0.01229   0.00685  -0.0021  0.9245  0.9306  -0.4326   0.0000   0.3380
   0.200   0.0414   0.01229   0.00686  -0.0032  0.9180  0.9352  -0.4502   0.0000   0.3236
   0.300   0.0579   0.01228   0.00684  -0.0039  0.9112  0.9407  -0.4671   0.0000   0.3148
   0.400   0.0758   0.01224   0.00679  -0.0049  0.9054  0.9455  -0.4867   0.0000   0.3120
   0.500   0.0993   0.01218   0.00673  -0.0070  0.9009  0.9473  -0.5106   0.0000   0.3179
   0.600   0.1189   0.01217   0.00673  -0.0085  0.8919  0.9502  -0.5330   0.0000   0.3186
   0.700   0.1388   0.01213   0.00668  -0.0100  0.8839  0.9534  -0.5566   0.0000   0.3187
   0.800   0.1577   0.01206   0.00659  -0.0112  0.8770  0.9571  -0.5807   0.0000   0.3175
   0.900   0.1693   0.01206   0.00659  -0.0111  0.8658  0.9636  -0.5995   0.0000   0.3120
   1.000   0.1895   0.01199   0.00650  -0.0126  0.8564  0.9658  -0.6262   0.0000   0.3130
   1.100   0.2086   0.01194   0.00644  -0.0139  0.8463  0.9688  -0.6546   0.0000   0.3133
   1.200   0.2260   0.01191   0.00639  -0.0149  0.8343  0.9728  -0.6818   0.0000   0.3128
   1.300   0.2413   0.01187   0.00630  -0.0155  0.8241  0.9773  -0.7074   0.0000   0.3108
   1.400   0.2576   0.01185   0.00629  -0.0164  0.8104  0.9813  -0.7368   0.0000   0.3103
   1.500   0.2759   0.01179   0.00618  -0.0176  0.7986  0.9843  -0.7692   0.0000   0.3103
   1.600   0.2936   0.01176   0.00613  -0.0189  0.7840  0.9880  -0.8010   0.0000   0.3107
   1.700   0.3098   0.01174   0.00605  -0.0197  0.7711  0.9920  -0.8331   0.0000   0.3100
   1.800   0.3279   0.01170   0.00598  -0.0211  0.7556  0.9949  -0.8702   0.0000   0.3106
   2.000   0.3599   0.01165   0.00583  -0.0229  0.7259  1.0000  -0.9403   0.0000   0.3100
   2.200   0.3771   0.01164   0.00570  -0.0220  0.6988  1.0000  -0.9920   0.0000   0.3045
   2.300   0.3857   0.01166   0.00563  -0.0215  0.6856  1.0000  -1.0218   0.0000   0.3018
   2.400   0.3945   0.01166   0.00560  -0.0211  0.6715  1.0000  -1.0519   0.0000   0.2995
   2.500   0.4033   0.01168   0.00555  -0.0206  0.6580  1.0000  -1.0822   0.0000   0.2971
   2.600   0.4122   0.01170   0.00553  -0.0202  0.6442  1.0000  -1.1129   0.0000   0.2950
   2.700   0.4210   0.01174   0.00549  -0.0198  0.6303  1.0000  -1.1438   0.0000   0.2928
   2.800   0.4300   0.01177   0.00548  -0.0194  0.6167  1.0000  -1.1750   0.0000   0.2909
   2.900   0.4389   0.01181   0.00546  -0.0190  0.6024  1.0000  -1.2064   0.0000   0.2889
   3.000   0.4479   0.01186   0.00545  -0.0186  0.5889  1.0000  -1.2381   0.0000   0.2871
   3.100   0.4568   0.01191   0.00544  -0.0182  0.5746  1.0000  -1.2699   0.0000   0.2854
   3.200   0.4657   0.01198   0.00548  -0.0178  0.5612  1.0000  -1.3083   0.0000   0.2836
   3.300   0.4746   0.01203   0.00549  -0.0174  0.5465  1.0000  -1.3461   0.0000   0.2820
   3.400   0.4835   0.01211   0.00550  -0.0170  0.5330  1.0000  -1.3839   0.0000   0.2804
   3.500   0.4923   0.01217   0.00552  -0.0165  0.5183  1.0000  -1.4219   0.0000   0.2788
   3.600   0.5009   0.01227   0.00554  -0.0161  0.5049  1.0000  -1.4598   0.0000   0.2773
   3.700   0.5096   0.01233   0.00557  -0.0157  0.4902  1.0000  -1.4979   0.0000   0.2758
   3.800   0.5181   0.01245   0.00560  -0.0152  0.4764  1.0000  -1.5360   0.0000   0.2743
   3.900   0.5267   0.01252   0.00564  -0.0147  0.4614  1.0000  -1.5746   0.0000   0.2729
   4.000   0.5351   0.01264   0.00568  -0.0142  0.4477  1.0000  -1.6129   0.0000   0.2715
   4.100   0.5437   0.01273   0.00574  -0.0138  0.4327  1.0000  -1.6518   0.0000   0.2701
   4.200   0.5520   0.01286   0.00579  -0.0133  0.4188  1.0000  -1.6903   0.0000   0.2688
   4.300   0.5604   0.01296   0.00585  -0.0128  0.4036  1.0000  -1.7293   0.0000   0.2675
   4.400   0.5686   0.01310   0.00592  -0.0123  0.3893  1.0000  -1.7681   0.0000   0.2662
   4.500   0.5768   0.01323   0.00599  -0.0118  0.3741  1.0000  -1.8071   0.0000   0.2649
   4.600   0.5850   0.01337   0.00607  -0.0113  0.3596  1.0000  -1.8505   0.0000   0.2636
   4.700   0.5929   0.01353   0.00615  -0.0107  0.3446  1.0000  -1.8964   0.0000   0.2624
   4.800   0.6012   0.01366   0.00624  -0.0102  0.3295  1.0000  -1.9431   0.0000   0.2612
   4.900   0.6087   0.01387   0.00633  -0.0096  0.3149  1.0000  -1.9886   0.0000   0.2599
   5.000   0.6170   0.01401   0.00645  -0.0091  0.2994  1.0000  -2.0358   0.0000   0.2588
   5.100   0.6247   0.01420   0.00656  -0.0085  0.2851  1.0000  -2.0819   0.0000   0.2576
   5.200   0.6324   0.01440   0.00673  -0.0080  0.2703  1.0000  -2.1294   0.0000   0.2565
   5.300   0.6403   0.01459   0.00688  -0.0074  0.2562  1.0000  -2.1771   0.0000   0.2554
   5.500   0.6555   0.01503   0.00718  -0.0062  0.2285  1.0000  -2.2699   0.0000   0.2532
   5.600   0.6627   0.01530   0.00735  -0.0056  0.2159  1.0000  -2.3153   0.0000   0.2520
   5.700   0.6703   0.01552   0.00751  -0.0050  0.2032  1.0000  -2.3618   0.0000   0.2510
   5.800   0.6777   0.01579   0.00772  -0.0044  0.1918  1.0000  -2.4073   0.0000   0.2499
   5.900   0.6851   0.01605   0.00790  -0.0038  0.1811  1.0000  -2.4532   0.0000   0.2488
   6.000   0.6925   0.01634   0.00814  -0.0032  0.1716  1.0000  -2.4978   0.0000   0.2478
   6.100   0.7001   0.01659   0.00835  -0.0026  0.1627  1.0000  -2.5436   0.0000   0.2467
   6.200   0.7068   0.01696   0.00863  -0.0018  0.1549  1.0000  -2.5863   0.0000   0.2456
   6.300   0.7149   0.01717   0.00886  -0.0013  0.1473  1.0000  -2.6327   0.0000   0.2447
   6.400   0.7219   0.01749   0.00910  -0.0006  0.1406  1.0000  -2.6776   0.0000   0.2437
   6.500   0.7292   0.01783   0.00941   0.0000  0.1343  1.0000  -2.7208   0.0000   0.2427
   6.600   0.7372   0.01805   0.00963   0.0006  0.1282  1.0000  -2.7677   0.0000   0.2418
   6.700   0.7443   0.01835   0.00987   0.0012  0.1229  1.0000  -2.8138   0.0000   0.2409
   6.800   0.7512   0.01878   0.01024   0.0019  0.1179  1.0000  -2.8556   0.0000   0.2399
   6.900   0.7594   0.01898   0.01049   0.0025  0.1133  1.0000  -2.9022   0.0000   0.2391
   7.000   0.7672   0.01923   0.01073   0.0031  0.1091  1.0000  -2.9487   0.0000   0.2383
   7.100   0.7742   0.01961   0.01105   0.0037  0.1055  1.0000  -3.0013   0.0000   0.2374
   7.200   0.7810   0.02018   0.01155   0.0044  0.1020  1.0000  -3.0507   0.0000   0.2365
   7.300   0.7894   0.02042   0.01186   0.0049  0.0991  1.0000  -3.1068   0.0000   0.2357
   7.400   0.7974   0.02071   0.01223   0.0055  0.0960  1.0000  -3.1659   0.0000   0.2350
   7.500   0.8053   0.02101   0.01253   0.0060  0.0932  1.0000  -3.2237   0.0000   0.2343
   7.600   0.8130   0.02137   0.01285   0.0066  0.0907  1.0000  -3.2815   0.0000   0.2336
   7.700   0.8202   0.02204   0.01344   0.0071  0.0879  1.0000  -3.3339   0.0000   0.2329
   7.800   0.8283   0.02250   0.01393   0.0076  0.0858  1.0000  -3.3872   0.0000   0.2323
   7.900   0.8365   0.02275   0.01426   0.0082  0.0835  1.0000  -3.4444   0.0000   0.2316
   8.000   0.8447   0.02303   0.01457   0.0087  0.0811  1.0000  -3.5029   0.0000   0.2310
   8.100   0.8527   0.02330   0.01485   0.0092  0.0787  1.0000  -3.5638   0.0000   0.2305
   8.200   0.8605   0.02359   0.01512   0.0096  0.0766  1.0000  -3.6264   0.0000   0.2299
   8.300   0.8681   0.02408   0.01556   0.0101  0.0745  1.0000  -3.6863   0.0000   0.2294
   8.400   0.8759   0.02509   0.01653   0.0104  0.0723  1.0000  -3.7331   0.0000   0.2290
   8.500   0.8842   0.02539   0.01692   0.0110  0.0712  1.0000  -3.7886   0.0000   0.2284
   8.600   0.8924   0.02578   0.01738   0.0115  0.0699  1.0000  -3.8429   0.0000   0.2279
   8.700   0.9006   0.02621   0.01788   0.0120  0.0685  1.0000  -3.8967   0.0000   0.2273
   8.800   0.9086   0.02666   0.01839   0.0124  0.0671  1.0000  -3.9506   0.0000   0.2268
   8.900   0.9166   0.02711   0.01888   0.0129  0.0658  1.0000  -4.0056   0.0000   0.2263
   9.000   0.9246   0.02756   0.01936   0.0133  0.0645  1.0000  -4.0620   0.0000   0.2259
   9.100   0.9325   0.02802   0.01984   0.0138  0.0634  1.0000  -4.1195   0.0000   0.2254
   9.200   0.9404   0.02853   0.02034   0.0142  0.0623  1.0000  -4.1774   0.0000   0.2250
   9.300   0.9483   0.02918   0.02099   0.0145  0.0613  1.0000  -4.2332   0.0000   0.2246
   9.400   0.9559   0.03028   0.02210   0.0148  0.0601  1.0000  -4.2778   0.0000   0.2243
   9.500   0.9620   0.03185   0.02381   0.0153  0.0591  1.0000  -4.2995   0.0000   0.2239
   9.600   0.9688   0.03233   0.02442   0.0159  0.0586  1.0000  -4.3432   0.0000   0.2232
   9.700   0.9753   0.03292   0.02513   0.0166  0.0580  1.0000  -4.3837   0.0000   0.2226
   9.800   0.9815   0.03355   0.02588   0.0173  0.0573  1.0000  -4.4225   0.0000   0.2219
   9.900   0.9874   0.03419   0.02664   0.0179  0.0565  1.0000  -4.4610   0.0000   0.2212
  10.000   0.9931   0.03484   0.02740   0.0186  0.0556  1.0000  -4.5004   0.0000   0.2205
  10.100   0.9988   0.03545   0.02811   0.0192  0.0546  1.0000  -4.5425   0.0000   0.2199
  10.200   1.0045   0.03601   0.02874   0.0198  0.0536  1.0000  -4.5891   0.0000   0.2193
  10.300   1.0104   0.03650   0.02927   0.0204  0.0526  1.0000  -4.6414   0.0000   0.2187
  10.400   1.0161   0.03696   0.02978   0.0209  0.0517  1.0000  -4.6951   0.0000   0.2182
  10.500   1.0220   0.03740   0.03024   0.0214  0.0508  1.0000  -4.7528   0.0000   0.2177
  10.600   1.0280   0.03788   0.03073   0.0219  0.0500  1.0000  -4.8122   0.0000   0.2172
  10.700   1.0338   0.03852   0.03137   0.0223  0.0493  1.0000  -4.8674   0.0000   0.2168
  10.800   1.0386   0.03945   0.03233   0.0228  0.0487  1.0000  -4.9094   0.0000   0.2163
  10.900   1.0420   0.04069   0.03365   0.0234  0.0482  1.0000  -4.9362   0.0000   0.2157
  11.000   1.0432   0.04228   0.03535   0.0241  0.0478  1.0000  -4.9455   0.0000   0.2149
  11.100   1.0419   0.04417   0.03738   0.0250  0.0474  1.0000  -4.9363   0.0000   0.2140
  11.300   1.0381   0.04711   0.04060   0.0269  0.0470  1.0000  -4.9265   0.0000   0.2118
  11.400   1.0371   0.04803   0.04166   0.0279  0.0469  1.0000  -4.9354   0.0000   0.2107
  11.500   1.0351   0.04904   0.04280   0.0290  0.0467  1.0000  -4.9392   0.0000   0.2095
  11.600   1.0322   0.05012   0.04400   0.0300  0.0466  1.0000  -4.9382   0.0000   0.2083
  11.700   1.0277   0.05121   0.04521   0.0312  0.0465  1.0000  -4.9320   0.0000   0.2069
  11.800   1.0219   0.05233   0.04643   0.0324  0.0464  1.0000  -4.9212   0.0000   0.2053
  11.900   1.0155   0.05353   0.04774   0.0336  0.0463  1.0000  -4.9126   0.0000   0.2038
  12.000   1.0084   0.05483   0.04914   0.0345  0.0462  1.0000  -4.9006   0.0000   0.2025
  12.100   1.0008   0.05623   0.05065   0.0352  0.0462  1.0000  -4.8843   0.0000   0.2014
  12.200   0.9926   0.05776   0.05228   0.0357  0.0462  1.0000  -4.8637   0.0000   0.2004
  12.300   0.9838   0.05942   0.05404   0.0359  0.0462  1.0000  -4.8384   0.0000   0.1997
  12.400   0.9745   0.06124   0.05595   0.0358  0.0462  1.0000  -4.8084   0.0000   0.1993
  12.500   0.9647   0.06324   0.05804   0.0354  0.0462  1.0000  -4.7732   0.0000   0.1991
  12.600   0.9543   0.06542   0.06031   0.0347  0.0463  1.0000  -4.7325   0.0000   0.1992
  12.700   0.9433   0.06782   0.06280   0.0337  0.0463  1.0000  -4.6855   0.0000   0.1996
  12.800   0.9318   0.07049   0.06555   0.0324  0.0464  1.0000  -4.6315   0.0000   0.2004
  12.900   0.9196   0.07341   0.06855   0.0307  0.0465  1.0000  -4.5698   0.0000   0.2015
  13.000   0.9066   0.07665   0.07186   0.0288  0.0467  1.0000  -4.4990   0.0000   0.2030
  13.100   0.8930   0.08025   0.07553   0.0265  0.0469  1.0000  -4.4181   0.0000   0.2048
  13.200   0.8788   0.08422   0.07955   0.0241  0.0471  1.0000  -4.3264   0.0000   0.2069
  13.400   0.7221   0.12909   0.12475  -0.0048  0.0603  1.0000  -2.6924   0.0000   0.2421
  13.500   0.6895   0.14818   0.14384  -0.0104  0.0867  1.0000  -2.0973   0.0000   0.2513
  13.600   0.6807   0.15097   0.14660  -0.0134  0.0863  1.0000  -2.0064   0.0000   0.2559
  13.700   0.6619   0.15444   0.15003  -0.0191  0.0835  1.0000  -1.8345   0.0000   0.2650
  13.800   0.6599   0.15634   0.15193  -0.0205  0.0818  1.0000  -1.8001   0.0000   0.2671
  13.900   0.6601   0.15799   0.15357  -0.0213  0.0804  1.0000  -1.7833   0.0000   0.2682
  14.000   0.6615   0.15950   0.15508  -0.0219  0.0792  1.0000  -1.7821   0.0000   0.2689
  14.100   0.6636   0.16089   0.15647  -0.0223  0.0781  1.0000  -1.7918   0.0000   0.2694
  14.200   0.6666   0.16219   0.15778  -0.0226  0.0771  1.0000  -1.8086   0.0000   0.2695
  14.300   0.6705   0.16341   0.15900  -0.0227  0.0762  1.0000  -1.8329   0.0000   0.2694
  14.400   0.6753   0.16457   0.16016  -0.0226  0.0755  1.0000  -1.8657   0.0000   0.2688
  14.500   0.6809   0.16567   0.16126  -0.0223  0.0748  1.0000  -1.9059   0.0000   0.2680
  14.600   0.6870   0.16675   0.16235  -0.0218  0.0743  1.0000  -1.9527   0.0000   0.2669
  14.700   0.6936   0.16788   0.16350  -0.0211  0.0738  1.0000  -2.0058   0.0000   0.2654
  14.800   0.7008   0.16926   0.16488  -0.0202  0.0733  1.0000  -2.0655   0.0000   0.2636
  14.900   0.7065   0.17287   0.16849  -0.0186  0.0725  1.0000  -2.1143   0.0000   0.2611
  15.000   0.7063   0.17489   0.17050  -0.0198  0.0725  1.0000  -2.0911   0.0000   0.2627
  15.100   0.7056   0.17688   0.17248  -0.0212  0.0724  1.0000  -2.0628   0.0000   0.2646
  15.200   0.7033   0.17888   0.17448  -0.0229  0.0723  1.0000  -2.0203   0.0000   0.2670
  15.300   0.7002   0.18077   0.17635  -0.0249  0.0721  1.0000  -1.9684   0.0000   0.2700
  15.400   0.6924   0.18249   0.17805  -0.0282  0.0714  1.0000  -1.8689   0.0000   0.2750
  15.500   0.6835   0.18394   0.17948  -0.0316  0.0696  1.0000  -1.7653   0.0000   0.2804
  15.600   0.6835   0.18554   0.18108  -0.0328  0.0683  1.0000  -1.7440   0.0000   0.2821
  15.700   0.6849   0.18707   0.18260  -0.0337  0.0672  1.0000  -1.7379   0.0000   0.2832
  15.800   0.6868   0.18855   0.18408  -0.0345  0.0663  1.0000  -1.7378   0.0000   0.2840
  15.900   0.6890   0.18999   0.18552  -0.0351  0.0655  1.0000  -1.7415   0.0000   0.2847
  16.000   0.6915   0.19139   0.18692  -0.0357  0.0647  1.0000  -1.7483   0.0000   0.2853
  16.100   0.6942   0.19276   0.18829  -0.0363  0.0640  1.0000  -1.7577   0.0000   0.2857
  16.200   0.6972   0.19410   0.18963  -0.0368  0.0634  1.0000  -1.7699   0.0000   0.2861
  16.300   0.7003   0.19542   0.19095  -0.0372  0.0629  1.0000  -1.7849   0.0000   0.2863
  16.400   0.7038   0.19672   0.19226  -0.0375  0.0623  1.0000  -1.8029   0.0000   0.2864
  16.500   0.7075   0.19802   0.19356  -0.0378  0.0619  1.0000  -1.8244   0.0000   0.2863
  16.600   0.7116   0.19933   0.19488  -0.0380  0.0614  1.0000  -1.8499   0.0000   0.2861
  16.700   0.7162   0.20069   0.19624  -0.0380  0.0610  1.0000  -1.8805   0.0000   0.2857
  16.800   0.7216   0.20216   0.19772  -0.0379  0.0607  1.0000  -1.9177   0.0000   0.2850
  16.900   0.7289   0.20386   0.19947  -0.0373  0.0603  1.0000  -1.9751   0.0000   0.2835
  17.000   0.7385   0.20620   0.20183  -0.0359  0.0597  1.0000  -2.0594   0.0000   0.2808
  17.100   0.7433   0.21038   0.20599  -0.0352  0.0592  1.0000  -2.0861   0.0000   0.2796
  17.200   0.7425   0.21186   0.20747  -0.0368  0.0591  1.0000  -2.0486   0.0000   0.2816
  17.300   0.7413   0.21315   0.20875  -0.0386  0.0590  1.0000  -2.0047   0.0000   0.2840
  17.400   0.7384   0.21409   0.20967  -0.0408  0.0587  1.0000  -1.9425   0.0000   0.2871
  17.500   0.7319   0.21442   0.20998  -0.0441  0.0581  1.0000  -1.8432   0.0000   0.2919
  17.600   0.7293   0.21549   0.21103  -0.0470  0.0562  1.0000  -1.7640   0.0000   0.2959
  17.700   0.7313   0.21690   0.21245  -0.0481  0.0546  1.0000  -1.7512   0.0000   0.2972
  17.800   0.7340   0.21826   0.21381  -0.0489  0.0534  1.0000  -1.7518   0.0000   0.2979
  17.900   0.7369   0.21961   0.21516  -0.0496  0.0525  1.0000  -1.7555   0.0000   0.2984
  18.000   0.7399   0.22093   0.21649  -0.0502  0.0518  1.0000  -1.7616   0.0000   0.2988
  18.100   0.7431   0.22222   0.21778  -0.0508  0.0511  1.0000  -1.7707   0.0000   0.2991
  18.200   0.7465   0.22348   0.21904  -0.0513  0.0504  1.0000  -1.7833   0.0000   0.2993
  18.300   0.7502   0.22472   0.22029  -0.0516  0.0499  1.0000  -1.8000   0.0000   0.2994
  18.400   0.7541   0.22597   0.22154  -0.0519  0.0493  1.0000  -1.8215   0.0000   0.2992
  18.500   0.7584   0.22725   0.22283  -0.0520  0.0489  1.0000  -1.8492   0.0000   0.2988
  18.600   0.7634   0.22868   0.22426  -0.0519  0.0484  1.0000  -1.8853   0.0000   0.2980
  18.700   0.7696   0.23046   0.22605  -0.0514  0.0480  1.0000  -1.9350   0.0000   0.2966
  18.800   0.7788   0.23351   0.22912  -0.0499  0.0476  1.0000  -2.0132   0.0000   0.2938
  18.900   0.7840   0.23829   0.23389  -0.0492  0.0471  1.0000  -2.0333   0.0000   0.2925
  19.000   0.7849   0.23972   0.23532  -0.0506  0.0471  1.0000  -1.9973   0.0000   0.2940
  19.100   0.7856   0.24101   0.23661  -0.0520  0.0470  1.0000  -1.9600   0.0000   0.2956
  19.200   0.7862   0.24214   0.23773  -0.0535  0.0469  1.0000  -1.9195   0.0000   0.2973
  19.300   0.7855   0.24289   0.23847  -0.0553  0.0468  1.0000  -1.8682   0.0000   0.2996
  19.400   0.7842   0.24335   0.23892  -0.0576  0.0466  1.0000  -1.8050   0.0000   0.3023
  19.500   0.7830   0.24381   0.23936  -0.0602  0.0460  1.0000  -1.7260   0.0000   0.3057
  19.600   0.7840   0.24494   0.24049  -0.0623  0.0450  1.0000  -1.6672   0.0000   0.3082
  19.700   0.7864   0.24639   0.24193  -0.0635  0.0440  1.0000  -1.6445   0.0000   0.3093
  19.800   0.7892   0.24782   0.24337  -0.0645  0.0432  1.0000  -1.6328   0.0000   0.3101
  19.900   0.7922   0.24923   0.24477  -0.0654  0.0425  1.0000  -1.6259   0.0000   0.3108
  20.000   0.7952   0.25059   0.24614  -0.0662  0.0419  1.0000  -1.6221   0.0000   0.3113


