xflr5 v6.32

 Calculated polar for: NACA 0012

 1 1 Reynolds number fixed          Mach number fixed         

 xtrf =   1.000 (top)        1.000 (bottom)
 Mach =   0.000     Re =     2.000 e 6     Ncrit =   9.000

  alpha     CL        CD       CDp       Cm    Top Xtr Bot Xtr   Cpmin    Chinge    XCp    
 ------- -------- --------- --------- -------- ------- ------- -------- --------- ---------
 -15.000  -1.5089   0.02171   0.01701  -0.0215  1.0000  0.0101  -10.8471   0.0000   0.2168
 -14.900  -1.5044   0.02139   0.01668  -0.0207  1.0000  0.0101  -10.7504   0.0000   0.2175
 -14.800  -1.4998   0.02109   0.01636  -0.0199  1.0000  0.0102  -10.6528   0.0000   0.2182
 -14.700  -1.4951   0.02081   0.01605  -0.0191  1.0000  0.0103  -10.5547   0.0000   0.2189
 -14.600  -1.4902   0.02054   0.01576  -0.0183  1.0000  0.0104  -10.4557   0.0000   0.2195
 -14.500  -1.4851   0.02027   0.01549  -0.0175  1.0000  0.0105  -10.3559   0.0000   0.2202
 -14.400  -1.4796   0.02002   0.01521  -0.0168  1.0000  0.0106  -10.2539   0.0000   0.2209
 -14.300  -1.4734   0.01978   0.01495  -0.0161  1.0000  0.0108  -10.1474   0.0000   0.2214
 -14.200  -1.4667   0.01954   0.01469  -0.0156  1.0000  0.0109  -10.0375   0.0000   0.2219
 -14.100  -1.4596   0.01931   0.01445  -0.0151  1.0000  0.0110  -9.9260   0.0000   0.2224
 -14.000  -1.4524   0.01909   0.01421  -0.0146  1.0000  0.0111  -9.8133   0.0000   0.2228
 -13.900  -1.4449   0.01888   0.01399  -0.0142  1.0000  0.0112  -9.6995   0.0000   0.2232
 -13.800  -1.4372   0.01867   0.01377  -0.0138  1.0000  0.0114  -9.5848   0.0000   0.2236
 -13.700  -1.4293   0.01848   0.01357  -0.0134  1.0000  0.0115  -9.4692   0.0000   0.2240
 -13.600  -1.4213   0.01829   0.01337  -0.0130  1.0000  0.0116  -9.3528   0.0000   0.2244
 -13.500  -1.4131   0.01812   0.01318  -0.0127  1.0000  0.0117  -9.2358   0.0000   0.2248
 -13.400  -1.4047   0.01795   0.01301  -0.0123  1.0000  0.0117  -9.1182   0.0000   0.2252
 -13.300  -1.3963   0.01778   0.01283  -0.0120  1.0000  0.0118  -9.0002   0.0000   0.2255
 -13.200  -1.3877   0.01763   0.01267  -0.0117  1.0000  0.0119  -8.8819   0.0000   0.2258
 -13.100  -1.3790   0.01748   0.01251  -0.0114  1.0000  0.0119  -8.7636   0.0000   0.2262
 -13.000  -1.3702   0.01733   0.01236  -0.0111  1.0000  0.0120  -8.6452   0.0000   0.2265
 -12.900  -1.3613   0.01719   0.01221  -0.0108  1.0000  0.0120  -8.5268   0.0000   0.2268
 -12.800  -1.3524   0.01705   0.01206  -0.0106  1.0000  0.0120  -8.4087   0.0000   0.2271
 -12.700  -1.3434   0.01691   0.01192  -0.0103  1.0000  0.0121  -8.2907   0.0000   0.2274
 -12.600  -1.3343   0.01677   0.01178  -0.0100  1.0000  0.0121  -8.1731   0.0000   0.2277
 -12.500  -1.3252   0.01664   0.01163  -0.0098  1.0000  0.0121  -8.0554   0.0000   0.2280
 -12.400  -1.3161   0.01651   0.01150  -0.0095  1.0000  0.0121  -7.9386   0.0000   0.2283
 -12.300  -1.3082   0.01626   0.01122  -0.0091  1.0000  0.0123  -7.8352   0.0000   0.2287
 -12.200  -1.3015   0.01588   0.01079  -0.0085  1.0000  0.0128  -7.7460   0.0000   0.2293
 -12.100  -1.2939   0.01560   0.01047  -0.0080  1.0000  0.0131  -7.6477   0.0000   0.2298
 -12.000  -1.2857   0.01535   0.01020  -0.0076  1.0000  0.0135  -7.5557   0.0000   0.2303
 -11.900  -1.2773   0.01513   0.00996  -0.0072  1.0000  0.0138  -7.4682   0.0000   0.2307
 -11.800  -1.2687   0.01493   0.00974  -0.0068  1.0000  0.0141  -7.3789   0.0000   0.2311
 -11.700  -1.2600   0.01473   0.00953  -0.0065  1.0000  0.0144  -7.2883   0.0000   0.2314
 -11.600  -1.2512   0.01455   0.00933  -0.0062  1.0000  0.0147  -7.1967   0.0000   0.2318
 -11.500  -1.2423   0.01437   0.00915  -0.0059  1.0000  0.0150  -7.1043   0.0000   0.2322
 -11.400  -1.2333   0.01421   0.00898  -0.0055  1.0000  0.0153  -7.0112   0.0000   0.2325
 -11.300  -1.2242   0.01405   0.00882  -0.0052  1.0000  0.0156  -6.9173   0.0000   0.2329
 -11.200  -1.2150   0.01389   0.00867  -0.0050  1.0000  0.0159  -6.8232   0.0000   0.2333
 -11.100  -1.2059   0.01375   0.00852  -0.0047  1.0000  0.0162  -6.7291   0.0000   0.2336
 -11.000  -1.1967   0.01360   0.00838  -0.0044  1.0000  0.0165  -6.6352   0.0000   0.2340
 -10.900  -1.1874   0.01347   0.00824  -0.0041  1.0000  0.0167  -6.5418   0.0000   0.2343
 -10.800  -1.1782   0.01333   0.00810  -0.0038  1.0000  0.0170  -6.4489   0.0000   0.2347
 -10.700  -1.1690   0.01320   0.00797  -0.0035  1.0000  0.0172  -6.3567   0.0000   0.2350
 -10.600  -1.1598   0.01307   0.00782  -0.0032  1.0000  0.0175  -6.2647   0.0000   0.2354
 -10.500  -1.1506   0.01295   0.00769  -0.0029  1.0000  0.0177  -6.1742   0.0000   0.2358
 -10.400  -1.1414   0.01283   0.00757  -0.0025  1.0000  0.0179  -6.0842   0.0000   0.2362
 -10.300  -1.1323   0.01271   0.00745  -0.0022  1.0000  0.0181  -5.9946   0.0000   0.2367
 -10.200  -1.1232   0.01260   0.00733  -0.0018  1.0000  0.0182  -5.9054   0.0000   0.2371
 -10.100  -1.1141   0.01250   0.00722  -0.0015  1.0000  0.0184  -5.8166   0.0000   0.2375
 -10.000  -1.1050   0.01240   0.00712  -0.0011  1.0000  0.0185  -5.7282   0.0000   0.2380
  -9.900  -1.0959   0.01230   0.00702  -0.0007  1.0000  0.0186  -5.6401   0.0000   0.2384
  -9.800  -1.0868   0.01221   0.00692  -0.0003  1.0000  0.0187  -5.5523   0.0000   0.2389
  -9.700  -1.0777   0.01212   0.00683   0.0000  1.0000  0.0188  -5.4650   0.0000   0.2394
  -9.600  -1.0687   0.01204   0.00674   0.0004  1.0000  0.0188  -5.3783   0.0000   0.2399
  -9.500  -1.0601   0.01191   0.00660   0.0009  1.0000  0.0191  -5.2975   0.0000   0.2405
  -9.400  -1.0524   0.01170   0.00637   0.0016  1.0000  0.0202  -5.2267   0.0000   0.2412
  -9.300  -1.0443   0.01154   0.00621   0.0021  1.0000  0.0212  -5.1504   0.0000   0.2419
  -9.200  -1.0360   0.01141   0.00607   0.0027  1.0000  0.0221  -5.0721   0.0000   0.2426
  -9.100  -1.0277   0.01128   0.00595   0.0032  1.0000  0.0228  -4.9930   0.0000   0.2432
  -9.000  -1.0193   0.01117   0.00584   0.0037  1.0000  0.0234  -4.9136   0.0000   0.2439
  -8.900  -1.0110   0.01106   0.00574   0.0043  1.0000  0.0240  -4.8344   0.0000   0.2446
  -8.800  -1.0026   0.01095   0.00564   0.0048  1.0000  0.0245  -4.7556   0.0000   0.2452
  -8.700  -0.9941   0.01086   0.00553   0.0053  1.0000  0.0250  -4.6782   0.0000   0.2459
  -8.600  -0.9857   0.01076   0.00544   0.0058  1.0000  0.0255  -4.5999   0.0000   0.2466
  -8.500  -0.9772   0.01068   0.00536   0.0063  1.0000  0.0259  -4.5219   0.0000   0.2473
  -8.400  -0.9654   0.01059   0.00526   0.0061  0.9998  0.0262  -4.4310   0.0000   0.2473
  -8.300  -0.9524   0.01050   0.00517   0.0057  0.9995  0.0265  -4.3365   0.0000   0.2470
  -8.200  -0.9394   0.01041   0.00509   0.0053  0.9991  0.0267  -4.2424   0.0000   0.2467
  -8.100  -0.9264   0.01033   0.00500   0.0048  0.9987  0.0269  -4.1489   0.0000   0.2464
  -8.000  -0.9136   0.01021   0.00487   0.0044  0.9983  0.0279  -4.0596   0.0000   0.2462
  -7.900  -0.9009   0.01006   0.00473   0.0040  0.9978  0.0299  -3.9719   0.0000   0.2459
  -7.800  -0.8881   0.00993   0.00462   0.0036  0.9973  0.0316  -3.8831   0.0000   0.2456
  -7.700  -0.8752   0.00981   0.00452   0.0031  0.9968  0.0329  -3.7940   0.0000   0.2452
  -7.600  -0.8622   0.00970   0.00442   0.0027  0.9963  0.0340  -3.7051   0.0000   0.2449
  -7.500  -0.8491   0.00960   0.00433   0.0022  0.9958  0.0349  -3.6164   0.0000   0.2444
  -7.400  -0.8358   0.00952   0.00425   0.0017  0.9954  0.0357  -3.5279   0.0000   0.2440
  -7.300  -0.8225   0.00944   0.00417   0.0012  0.9949  0.0362  -3.4395   0.0000   0.2435
  -7.200  -0.8092   0.00935   0.00409   0.0007  0.9945  0.0373  -3.3526   0.0000   0.2430
  -7.100  -0.7959   0.00923   0.00396   0.0002  0.9941  0.0401  -3.2659   0.0000   0.2425
  -7.000  -0.7827   0.00910   0.00386  -0.0003  0.9937  0.0426  -3.1813   0.0000   0.2419
  -6.900  -0.7693   0.00899   0.00378  -0.0009  0.9933  0.0446  -3.0968   0.0000   0.2413
  -6.800  -0.7558   0.00890   0.00370  -0.0014  0.9930  0.0460  -3.0221   0.0000   0.2406
  -6.700  -0.7427   0.00882   0.00362  -0.0019  0.9924  0.0469  -2.9521   0.0000   0.2401
  -6.600  -0.7305   0.00874   0.00354  -0.0021  0.9914  0.0488  -2.8856   0.0000   0.2398
  -6.500  -0.7182   0.00862   0.00345  -0.0024  0.9904  0.0523  -2.8194   0.0000   0.2394
  -6.400  -0.7057   0.00851   0.00336  -0.0027  0.9894  0.0550  -2.7530   0.0000   0.2390
  -6.300  -0.6931   0.00841   0.00329  -0.0031  0.9883  0.0572  -2.6868   0.0000   0.2385
  -6.200  -0.6804   0.00834   0.00322  -0.0034  0.9871  0.0588  -2.6207   0.0000   0.2380
  -6.100  -0.6678   0.00825   0.00314  -0.0037  0.9858  0.0614  -2.5556   0.0000   0.2375
  -6.000  -0.6555   0.00814   0.00306  -0.0040  0.9844  0.0657  -2.4920   0.0000   0.2370
  -5.900  -0.6430   0.00804   0.00298  -0.0043  0.9831  0.0690  -2.4280   0.0000   0.2364
  -5.800  -0.6301   0.00796   0.00292  -0.0047  0.9818  0.0715  -2.3636   0.0000   0.2358
  -5.700  -0.6173   0.00788   0.00285  -0.0051  0.9805  0.0746  -2.2999   0.0000   0.2351
  -5.600  -0.6064   0.00777   0.00277  -0.0051  0.9783  0.0796  -2.2419   0.0000   0.2351
  -5.500  -0.5961   0.00768   0.00271  -0.0048  0.9754  0.0835  -2.1856   0.0000   0.2354
  -5.400  -0.5852   0.00761   0.00263  -0.0048  0.9725  0.0864  -2.1270   0.0000   0.2354
  -5.300  -0.5741   0.00752   0.00257  -0.0048  0.9696  0.0922  -2.0700   0.0000   0.2354
  -5.200  -0.5631   0.00741   0.00249  -0.0047  0.9668  0.0984  -2.0137   0.0000   0.2353
  -5.100  -0.5519   0.00734   0.00243  -0.0047  0.9640  0.1025  -1.9571   0.0000   0.2352
  -5.000  -0.5415   0.00724   0.00237  -0.0045  0.9609  0.1097  -1.9036   0.0000   0.2354
  -4.900  -0.5312   0.00714   0.00230  -0.0044  0.9572  0.1154  -1.8503   0.0000   0.2357
  -4.800  -0.5205   0.00708   0.00225  -0.0042  0.9532  0.1193  -1.7967   0.0000   0.2359
  -4.700  -0.5102   0.00699   0.00219  -0.0040  0.9490  0.1267  -1.7495   0.0000   0.2362
  -4.600  -0.4998   0.00691   0.00212  -0.0038  0.9448  0.1331  -1.7053   0.0000   0.2365
  -4.500  -0.4889   0.00685   0.00208  -0.0037  0.9413  0.1374  -1.6605   0.0000   0.2365
  -4.400  -0.4785   0.00675   0.00202  -0.0036  0.9368  0.1462  -1.6169   0.0000   0.2368
  -4.300  -0.4680   0.00668   0.00196  -0.0034  0.9317  0.1532  -1.5736   0.0000   0.2370
  -4.200  -0.4576   0.00661   0.00190  -0.0032  0.9264  0.1610  -1.5307   0.0000   0.2374
  -4.100  -0.4473   0.00651   0.00184  -0.0030  0.9217  0.1715  -1.4883   0.0000   0.2377
  -4.000  -0.4364   0.00644   0.00180  -0.0029  0.9169  0.1788  -1.4451   0.0000   0.2377
  -3.900  -0.4260   0.00634   0.00174  -0.0028  0.9112  0.1896  -1.4033   0.0000   0.2380
  -3.800  -0.4154   0.00630   0.00169  -0.0026  0.9049  0.1961  -1.3613   0.0000   0.2383
  -3.700  -0.4047   0.00623   0.00165  -0.0025  0.8991  0.2049  -1.3194   0.0000   0.2385
  -3.600  -0.3939   0.00615   0.00159  -0.0024  0.8936  0.2139  -1.2770   0.0000   0.2386
  -3.400  -0.3727   0.00603   0.00150  -0.0021  0.8798  0.2320  -1.2012   0.0000   0.2391
  -3.300  -0.3619   0.00598   0.00146  -0.0020  0.8737  0.2412  -1.1663   0.0000   0.2393
  -3.200  -0.3511   0.00589   0.00141  -0.0019  0.8670  0.2537  -1.1320   0.0000   0.2394
  -3.100  -0.3404   0.00585   0.00138  -0.0018  0.8592  0.2630  -1.0979   0.0000   0.2396
  -3.000  -0.3297   0.00582   0.00134  -0.0017  0.8511  0.2714  -1.0640   0.0000   0.2399
  -2.900  -0.3188   0.00574   0.00130  -0.0016  0.8450  0.2816  -1.0302   0.0000   0.2400
  -2.800  -0.3077   0.00571   0.00127  -0.0015  0.8370  0.2893  -0.9964   0.0000   0.2400
  -2.700  -0.2972   0.00566   0.00123  -0.0014  0.8278  0.3019  -0.9637   0.0000   0.2404
  -2.600  -0.2863   0.00561   0.00120  -0.0013  0.8207  0.3124  -0.9336   0.0000   0.2405
  -2.500  -0.2753   0.00556   0.00117  -0.0013  0.8129  0.3227  -0.9050   0.0000   0.2405
  -2.400  -0.2646   0.00552   0.00114  -0.0011  0.8035  0.3329  -0.8770   0.0000   0.2408
  -2.300  -0.2536   0.00551   0.00112  -0.0011  0.7951  0.3403  -0.8486   0.0000   0.2409
  -2.200  -0.2426   0.00545   0.00109  -0.0010  0.7870  0.3529  -0.8207   0.0000   0.2410
  -2.100  -0.2318   0.00542   0.00106  -0.0009  0.7773  0.3636  -0.7936   0.0000   0.2412
  -2.000  -0.2208   0.00540   0.00104  -0.0009  0.7681  0.3725  -0.7694   0.0000   0.2413
  -1.900  -0.2098   0.00535   0.00102  -0.0008  0.7603  0.3839  -0.7453   0.0000   0.2414
  -1.800  -0.1988   0.00534   0.00099  -0.0008  0.7502  0.3927  -0.7213   0.0000   0.2415
  -1.700  -0.1880   0.00531   0.00097  -0.0007  0.7401  0.4041  -0.6977   0.0000   0.2417
  -1.600  -0.1769   0.00527   0.00095  -0.0006  0.7324  0.4152  -0.6760   0.0000   0.2417
  -1.500  -0.1658   0.00527   0.00094  -0.0006  0.7223  0.4222  -0.6550   0.0000   0.2417
  -1.400  -0.1550   0.00524   0.00092  -0.0005  0.7117  0.4349  -0.6345   0.0000   0.2421
  -1.300  -0.1439   0.00521   0.00091  -0.0005  0.7038  0.4453  -0.6140   0.0000   0.2420
  -1.200  -0.1328   0.00521   0.00089  -0.0005  0.6934  0.4534  -0.5955   0.0000   0.2420
  -1.100  -0.1220   0.00519   0.00088  -0.0004  0.6828  0.4658  -0.5774   0.0000   0.2424
  -1.000  -0.1107   0.00516   0.00087  -0.0004  0.6750  0.4752  -0.5590   0.0000   0.2422
  -0.900  -0.0996   0.00516   0.00086  -0.0003  0.6645  0.4847  -0.5425   0.0000   0.2422
  -0.800  -0.0888   0.00515   0.00085  -0.0003  0.6533  0.4963  -0.5264   0.0000   0.2426
  -0.700  -0.0775   0.00513   0.00084  -0.0003  0.6456  0.5051  -0.5100   0.0000   0.2422
  -0.600  -0.0665   0.00513   0.00084  -0.0002  0.6352  0.5154  -0.4952   0.0000   0.2423
  -0.500  -0.0556   0.00512   0.00083  -0.0001  0.6240  0.5266  -0.4808   0.0000   0.2429
  -0.400  -0.0443   0.00511   0.00083  -0.0001  0.6160  0.5348  -0.4660   0.0000   0.2422
  -0.300  -0.0332   0.00511   0.00082  -0.0001  0.6055  0.5457  -0.4528   0.0000   0.2424
  -0.200  -0.0223   0.00511   0.00082  -0.0000  0.5944  0.5566  -0.4397   0.0000   0.2435
  -0.100  -0.0110   0.00510   0.00082  -0.0001  0.5865  0.5647  -0.4264   0.0000   0.2409
   0.000   0.0000   0.00510   0.00083  -0.0000  0.5755  0.5755  -0.4144   0.0000   0.4419
   0.100   0.0110   0.00510   0.00082   0.0001  0.5647  0.5864  -0.4264   0.0000   0.2409
   0.200   0.0223   0.00511   0.00082   0.0000  0.5567  0.5944  -0.4397   0.0000   0.2435
   0.300   0.0332   0.00511   0.00082   0.0001  0.5457  0.6055  -0.4528   0.0000   0.2424
   0.400   0.0443   0.00511   0.00083   0.0001  0.5348  0.6159  -0.4660   0.0000   0.2422
   0.500   0.0556   0.00512   0.00083   0.0001  0.5266  0.6240  -0.4808   0.0000   0.2429
   0.600   0.0665   0.00513   0.00084   0.0002  0.5154  0.6352  -0.4952   0.0000   0.2423
   0.700   0.0775   0.00513   0.00084   0.0003  0.5051  0.6456  -0.5100   0.0000   0.2422
   0.800   0.0888   0.00515   0.00085   0.0003  0.4963  0.6533  -0.5264   0.0000   0.2426
   0.900   0.0996   0.00516   0.00086   0.0003  0.4848  0.6645  -0.5425   0.0000   0.2422
   1.000   0.1107   0.00516   0.00087   0.0004  0.4752  0.6750  -0.5590   0.0000   0.2422
   1.100   0.1220   0.00519   0.00088   0.0004  0.4658  0.6828  -0.5774   0.0000   0.2424
   1.200   0.1328   0.00521   0.00089   0.0005  0.4535  0.6934  -0.5955   0.0000   0.2420
   1.300   0.1439   0.00521   0.00091   0.0005  0.4453  0.7038  -0.6140   0.0000   0.2420
   1.400   0.1550   0.00524   0.00092   0.0005  0.4349  0.7117  -0.6345   0.0000   0.2421
   1.500   0.1658   0.00527   0.00094   0.0006  0.4222  0.7223  -0.6550   0.0000   0.2417
   1.600   0.1769   0.00527   0.00095   0.0006  0.4152  0.7324  -0.6760   0.0000   0.2417
   1.700   0.1880   0.00531   0.00097   0.0007  0.4041  0.7401  -0.6977   0.0000   0.2417
   1.800   0.1988   0.00534   0.00099   0.0008  0.3927  0.7502  -0.7213   0.0000   0.2415
   1.900   0.2098   0.00535   0.00102   0.0008  0.3839  0.7603  -0.7453   0.0000   0.2414
   2.000   0.2208   0.00540   0.00104   0.0009  0.3725  0.7681  -0.7694   0.0000   0.2413
   2.100   0.2318   0.00542   0.00106   0.0009  0.3636  0.7772  -0.7936   0.0000   0.2412
   2.200   0.2426   0.00545   0.00109   0.0010  0.3529  0.7870  -0.8208   0.0000   0.2410
   2.300   0.2536   0.00551   0.00112   0.0011  0.3403  0.7951  -0.8486   0.0000   0.2409
   2.400   0.2646   0.00552   0.00114   0.0011  0.3329  0.8035  -0.8770   0.0000   0.2408
   2.500   0.2753   0.00556   0.00117   0.0013  0.3227  0.8129  -0.9050   0.0000   0.2405
   2.600   0.2863   0.00561   0.00120   0.0013  0.3125  0.8207  -0.9337   0.0000   0.2405
   2.700   0.2973   0.00566   0.00123   0.0014  0.3019  0.8278  -0.9637   0.0000   0.2404
   2.800   0.3078   0.00571   0.00127   0.0015  0.2893  0.8370  -0.9964   0.0000   0.2400
   2.900   0.3188   0.00574   0.00130   0.0016  0.2816  0.8450  -1.0302   0.0000   0.2400
   3.000   0.3297   0.00582   0.00134   0.0016  0.2714  0.8511  -1.0641   0.0000   0.2399
   3.100   0.3404   0.00585   0.00138   0.0018  0.2630  0.8592  -1.0979   0.0000   0.2396
   3.200   0.3511   0.00589   0.00141   0.0019  0.2537  0.8670  -1.1321   0.0000   0.2394
   3.300   0.3619   0.00598   0.00146   0.0020  0.2412  0.8737  -1.1664   0.0000   0.2393
   3.400   0.3727   0.00603   0.00150   0.0021  0.2320  0.8799  -1.2012   0.0000   0.2391
   3.500   0.3830   0.00611   0.00155   0.0023  0.2196  0.8871  -1.2355   0.0000   0.2388
   3.600   0.3940   0.00615   0.00159   0.0024  0.2138  0.8936  -1.2771   0.0000   0.2386
   3.700   0.4048   0.00623   0.00165   0.0025  0.2049  0.8991  -1.3195   0.0000   0.2385
   3.800   0.4154   0.00630   0.00169   0.0026  0.1961  0.9049  -1.3613   0.0000   0.2383
   3.900   0.4260   0.00634   0.00174   0.0028  0.1896  0.9112  -1.4034   0.0000   0.2380
   4.000   0.4364   0.00644   0.00180   0.0029  0.1788  0.9169  -1.4452   0.0000   0.2377
   4.100   0.4473   0.00651   0.00184   0.0030  0.1715  0.9217  -1.4884   0.0000   0.2377
   4.200   0.4576   0.00661   0.00190   0.0032  0.1609  0.9264  -1.5307   0.0000   0.2374
   4.300   0.4681   0.00668   0.00196   0.0034  0.1532  0.9317  -1.5737   0.0000   0.2371
   4.400   0.4785   0.00675   0.00202   0.0036  0.1462  0.9368  -1.6170   0.0000   0.2368
   4.500   0.4890   0.00685   0.00208   0.0037  0.1374  0.9413  -1.6605   0.0000   0.2366
   4.600   0.4998   0.00691   0.00212   0.0038  0.1331  0.9448  -1.7054   0.0000   0.2365
   4.700   0.5102   0.00699   0.00219   0.0040  0.1267  0.9490  -1.7496   0.0000   0.2362
   4.800   0.5206   0.00708   0.00225   0.0042  0.1193  0.9532  -1.7968   0.0000   0.2359
   4.900   0.5312   0.00715   0.00230   0.0044  0.1154  0.9572  -1.8504   0.0000   0.2357
   5.000   0.5416   0.00724   0.00237   0.0045  0.1097  0.9609  -1.9037   0.0000   0.2355
   5.100   0.5519   0.00734   0.00243   0.0047  0.1025  0.9640  -1.9572   0.0000   0.2352
   5.200   0.5632   0.00741   0.00249   0.0047  0.0984  0.9668  -2.0138   0.0000   0.2353
   5.300   0.5742   0.00752   0.00257   0.0047  0.0922  0.9696  -2.0701   0.0000   0.2354
   5.400   0.5853   0.00761   0.00263   0.0048  0.0864  0.9725  -2.1271   0.0000   0.2354
   5.500   0.5962   0.00768   0.00271   0.0048  0.0835  0.9754  -2.1857   0.0000   0.2354
   5.600   0.6064   0.00777   0.00277   0.0050  0.0796  0.9783  -2.2420   0.0000   0.2351
   5.700   0.6173   0.00788   0.00285   0.0051  0.0746  0.9805  -2.3000   0.0000   0.2351
   5.800   0.6302   0.00796   0.00292   0.0047  0.0715  0.9818  -2.3637   0.0000   0.2358
   5.900   0.6430   0.00804   0.00298   0.0043  0.0690  0.9831  -2.4281   0.0000   0.2365
   6.000   0.6556   0.00814   0.00306   0.0040  0.0657  0.9844  -2.4921   0.0000   0.2370
   6.100   0.6679   0.00825   0.00314   0.0037  0.0614  0.9858  -2.5557   0.0000   0.2375
   6.200   0.6805   0.00834   0.00322   0.0034  0.0588  0.9871  -2.6208   0.0000   0.2380
   6.300   0.6932   0.00841   0.00329   0.0031  0.0572  0.9883  -2.6869   0.0000   0.2385
   6.400   0.7057   0.00851   0.00336   0.0027  0.0550  0.9895  -2.7531   0.0000   0.2390
   6.500   0.7182   0.00862   0.00345   0.0024  0.0523  0.9905  -2.8195   0.0000   0.2394
   6.600   0.7305   0.00874   0.00354   0.0021  0.0488  0.9915  -2.8857   0.0000   0.2398
   6.700   0.7427   0.00882   0.00362   0.0019  0.0469  0.9925  -2.9522   0.0000   0.2401
   6.800   0.7559   0.00890   0.00370   0.0014  0.0460  0.9930  -3.0223   0.0000   0.2406
   6.900   0.7694   0.00899   0.00378   0.0009  0.0446  0.9933  -3.0970   0.0000   0.2413
   7.000   0.7828   0.00910   0.00386   0.0003  0.0426  0.9937  -3.1816   0.0000   0.2419
   7.100   0.7960   0.00923   0.00396  -0.0002  0.0401  0.9941  -3.2662   0.0000   0.2425
   7.200   0.8092   0.00935   0.00409  -0.0007  0.0373  0.9945  -3.3528   0.0000   0.2430
   7.300   0.8225   0.00944   0.00417  -0.0012  0.0362  0.9949  -3.4398   0.0000   0.2435
   7.400   0.8359   0.00952   0.00425  -0.0017  0.0357  0.9954  -3.5282   0.0000   0.2440
   7.500   0.8491   0.00960   0.00433  -0.0022  0.0349  0.9958  -3.6167   0.0000   0.2445
   7.600   0.8623   0.00970   0.00442  -0.0027  0.0340  0.9963  -3.7054   0.0000   0.2449
   7.700   0.8753   0.00981   0.00452  -0.0032  0.0329  0.9968  -3.7943   0.0000   0.2453
   7.800   0.8882   0.00993   0.00462  -0.0036  0.0316  0.9973  -3.8834   0.0000   0.2456
   7.900   0.9010   0.01006   0.00473  -0.0040  0.0299  0.9978  -3.9722   0.0000   0.2459
   8.000   0.9137   0.01021   0.00487  -0.0044  0.0279  0.9983  -4.0599   0.0000   0.2462
   8.100   0.9265   0.01033   0.00500  -0.0048  0.0269  0.9987  -4.1492   0.0000   0.2465
   8.200   0.9395   0.01041   0.00508  -0.0053  0.0267  0.9991  -4.2428   0.0000   0.2468
   8.300   0.9525   0.01050   0.00517  -0.0057  0.0265  0.9995  -4.3369   0.0000   0.2470
   8.400   0.9655   0.01058   0.00526  -0.0062  0.0262  0.9998  -4.4314   0.0000   0.2473
   8.500   0.9770   0.01068   0.00535  -0.0063  0.0259  1.0000  -4.5211   0.0000   0.2473
   8.600   0.9855   0.01076   0.00544  -0.0058  0.0255  1.0000  -4.5992   0.0000   0.2466
   8.700   0.9939   0.01085   0.00553  -0.0053  0.0250  1.0000  -4.6776   0.0000   0.2459
   8.800   1.0024   0.01095   0.00564  -0.0048  0.0245  1.0000  -4.7550   0.0000   0.2452
   8.900   1.0108   0.01106   0.00574  -0.0042  0.0240  1.0000  -4.8338   0.0000   0.2445
   9.000   1.0192   0.01117   0.00584  -0.0037  0.0234  1.0000  -4.9129   0.0000   0.2438
   9.100   1.0276   0.01128   0.00595  -0.0032  0.0228  1.0000  -4.9924   0.0000   0.2432
   9.200   1.0359   0.01141   0.00607  -0.0026  0.0221  1.0000  -5.0716   0.0000   0.2425
   9.300   1.0442   0.01154   0.00620  -0.0021  0.0212  1.0000  -5.1499   0.0000   0.2419
   9.400   1.0523   0.01170   0.00637  -0.0015  0.0203  1.0000  -5.2263   0.0000   0.2412
   9.500   1.0600   0.01190   0.00660  -0.0009  0.0191  1.0000  -5.2972   0.0000   0.2404
   9.600   1.0686   0.01203   0.00674  -0.0004  0.0188  1.0000  -5.3779   0.0000   0.2399
   9.700   1.0776   0.01212   0.00683  -0.0000  0.0188  1.0000  -5.4647   0.0000   0.2394
   9.800   1.0867   0.01221   0.00692   0.0004  0.0187  1.0000  -5.5520   0.0000   0.2389
   9.900   1.0958   0.01230   0.00702   0.0007  0.0186  1.0000  -5.6399   0.0000   0.2384
  10.000   1.1049   0.01240   0.00712   0.0011  0.0185  1.0000  -5.7280   0.0000   0.2380
  10.100   1.1140   0.01250   0.00722   0.0015  0.0184  1.0000  -5.8165   0.0000   0.2375
  10.200   1.1231   0.01260   0.00733   0.0018  0.0182  1.0000  -5.9053   0.0000   0.2371
  10.300   1.1323   0.01271   0.00745   0.0022  0.0181  1.0000  -5.9946   0.0000   0.2367
  10.400   1.1414   0.01283   0.00757   0.0025  0.0179  1.0000  -6.0842   0.0000   0.2362
  10.500   1.1506   0.01295   0.00769   0.0028  0.0177  1.0000  -6.1744   0.0000   0.2358
  10.600   1.1598   0.01307   0.00782   0.0032  0.0175  1.0000  -6.2649   0.0000   0.2354
  10.700   1.1691   0.01320   0.00797   0.0035  0.0172  1.0000  -6.3570   0.0000   0.2351
  10.800   1.1783   0.01333   0.00810   0.0038  0.0170  1.0000  -6.4493   0.0000   0.2347
  10.900   1.1875   0.01347   0.00824   0.0041  0.0167  1.0000  -6.5422   0.0000   0.2343
  11.000   1.1968   0.01360   0.00838   0.0044  0.0165  1.0000  -6.6357   0.0000   0.2340
  11.100   1.2060   0.01375   0.00852   0.0046  0.0162  1.0000  -6.7297   0.0000   0.2336
  11.200   1.2152   0.01389   0.00867   0.0049  0.0159  1.0000  -6.8238   0.0000   0.2333
  11.300   1.2243   0.01405   0.00882   0.0052  0.0156  1.0000  -6.9180   0.0000   0.2329
  11.400   1.2334   0.01421   0.00898   0.0055  0.0153  1.0000  -7.0120   0.0000   0.2326
  11.500   1.2424   0.01437   0.00915   0.0058  0.0150  1.0000  -7.1052   0.0000   0.2322
  11.600   1.2514   0.01455   0.00933   0.0061  0.0147  1.0000  -7.1976   0.0000   0.2318
  11.700   1.2602   0.01473   0.00953   0.0065  0.0144  1.0000  -7.2893   0.0000   0.2315
  11.800   1.2690   0.01493   0.00974   0.0068  0.0141  1.0000  -7.3799   0.0000   0.2311
  11.900   1.2776   0.01513   0.00996   0.0071  0.0138  1.0000  -7.4693   0.0000   0.2307
  12.000   1.2860   0.01535   0.01020   0.0075  0.0135  1.0000  -7.5568   0.0000   0.2303
  12.100   1.2941   0.01560   0.01047   0.0079  0.0131  1.0000  -7.6491   0.0000   0.2299
  12.200   1.3018   0.01589   0.01080   0.0084  0.0127  1.0000  -7.7474   0.0000   0.2294
  12.300   1.3084   0.01626   0.01123   0.0091  0.0123  1.0000  -7.8364   0.0000   0.2288
  12.400   1.3164   0.01651   0.01150   0.0095  0.0121  1.0000  -7.9405   0.0000   0.2283
  12.500   1.3256   0.01664   0.01163   0.0097  0.0121  1.0000  -8.0574   0.0000   0.2281
  12.600   1.3347   0.01677   0.01178   0.0100  0.0121  1.0000  -8.1752   0.0000   0.2278
  12.700   1.3438   0.01691   0.01192   0.0102  0.0121  1.0000  -8.2929   0.0000   0.2275
  12.800   1.3528   0.01705   0.01206   0.0105  0.0120  1.0000  -8.4110   0.0000   0.2272
  12.900   1.3617   0.01719   0.01221   0.0107  0.0120  1.0000  -8.5292   0.0000   0.2269
  13.000   1.3706   0.01733   0.01236   0.0110  0.0120  1.0000  -8.6477   0.0000   0.2265
  13.100   1.3794   0.01748   0.01251   0.0113  0.0119  1.0000  -8.7662   0.0000   0.2262
  13.200   1.3881   0.01763   0.01267   0.0116  0.0119  1.0000  -8.8847   0.0000   0.2259
  13.300   1.3967   0.01778   0.01283   0.0119  0.0118  1.0000  -9.0031   0.0000   0.2256
  13.400   1.4052   0.01795   0.01300   0.0122  0.0117  1.0000  -9.1212   0.0000   0.2252
  13.500   1.4136   0.01812   0.01318   0.0125  0.0117  1.0000  -9.2389   0.0000   0.2249
  13.600   1.4218   0.01829   0.01337   0.0129  0.0116  1.0000  -9.3561   0.0000   0.2245
  13.700   1.4299   0.01848   0.01357   0.0133  0.0115  1.0000  -9.4727   0.0000   0.2241
  13.800   1.4378   0.01867   0.01377   0.0137  0.0114  1.0000  -9.5884   0.0000   0.2237
  13.900   1.4455   0.01888   0.01399   0.0141  0.0112  1.0000  -9.7033   0.0000   0.2233
  14.000   1.4530   0.01909   0.01421   0.0145  0.0111  1.0000  -9.8172   0.0000   0.2229
  14.100   1.4603   0.01931   0.01445   0.0150  0.0110  1.0000  -9.9302   0.0000   0.2225
  14.200   1.4674   0.01954   0.01469   0.0155  0.0109  1.0000  -10.0420   0.0000   0.2220
  14.300   1.4742   0.01978   0.01495   0.0160  0.0108  1.0000  -10.1521   0.0000   0.2215
  14.400   1.4805   0.02002   0.01521   0.0166  0.0106  1.0000  -10.2594   0.0000   0.2210
  14.500   1.4861   0.02028   0.01549   0.0173  0.0105  1.0000  -10.3620   0.0000   0.2204
  14.600   1.4912   0.02054   0.01576   0.0181  0.0104  1.0000  -10.4623   0.0000   0.2197
  14.700   1.4962   0.02081   0.01605   0.0189  0.0103  1.0000  -10.5615   0.0000   0.2190
  14.800   1.5009   0.02109   0.01636   0.0197  0.0102  1.0000  -10.6600   0.0000   0.2183
  14.900   1.5056   0.02139   0.01668   0.0205  0.0101  1.0000  -10.7580   0.0000   0.2177
  15.000   1.5101   0.02170   0.01701   0.0213  0.0100  1.0000  -10.8550   0.0000   0.2170
  15.100   1.5145   0.02203   0.01735   0.0221  0.0100  1.0000  -10.9511   0.0000   0.2164
  15.200   1.5188   0.02237   0.01772   0.0228  0.0099  1.0000  -11.0472   0.0000   0.2157
  15.300   1.5229   0.02273   0.01810   0.0235  0.0098  1.0000  -11.1420   0.0000   0.2151
  15.400   1.5268   0.02310   0.01849   0.0243  0.0097  1.0000  -11.2354   0.0000   0.2145
  15.500   1.5306   0.02349   0.01891   0.0250  0.0097  1.0000  -11.3281   0.0000   0.2139
  15.600   1.5341   0.02391   0.01934   0.0256  0.0096  1.0000  -11.4191   0.0000   0.2133
  15.700   1.5377   0.02434   0.01980   0.0263  0.0095  1.0000  -11.5103   0.0000   0.2127
  15.800   1.5409   0.02480   0.02029   0.0269  0.0095  1.0000  -11.5991   0.0000   0.2121
  15.900   1.5439   0.02528   0.02080   0.0275  0.0094  1.0000  -11.6862   0.0000   0.2116
  16.000   1.5467   0.02579   0.02133   0.0281  0.0094  1.0000  -11.7718   0.0000   0.2110
  16.100   1.5493   0.02633   0.02191   0.0287  0.0093  1.0000  -11.8551   0.0000   0.2105
  16.200   1.5518   0.02690   0.02250   0.0292  0.0093  1.0000  -11.9387   0.0000   0.2100
  16.300   1.5540   0.02751   0.02314   0.0297  0.0092  1.0000  -12.0189   0.0000   0.2095
  16.400   1.5562   0.02814   0.02380   0.0301  0.0091  1.0000  -12.0993   0.0000   0.2090
  16.500   1.5579   0.02883   0.02452   0.0305  0.0091  1.0000  -12.1760   0.0000   0.2086
  16.600   1.5594   0.02953   0.02526   0.0308  0.0091  1.0000  -12.2509   0.0000   0.2081
  16.700   1.5605   0.03030   0.02607   0.0311  0.0090  1.0000  -12.3221   0.0000   0.2077
  16.800   1.5615   0.03110   0.02690   0.0314  0.0090  1.0000  -12.3922   0.0000   0.2074
  16.900   1.5622   0.03197   0.02781   0.0316  0.0089  1.0000  -12.4592   0.0000   0.2070
  17.000   1.5628   0.03288   0.02876   0.0317  0.0089  1.0000  -12.5247   0.0000   0.2067
  17.100   1.5629   0.03387   0.02978   0.0317  0.0088  1.0000  -12.5863   0.0000   0.2065
  17.200   1.5630   0.03489   0.03085   0.0317  0.0088  1.0000  -12.6470   0.0000   0.2062
  17.300   1.5624   0.03601   0.03202   0.0316  0.0088  1.0000  -12.7016   0.0000   0.2061
  17.400   1.5618   0.03716   0.03320   0.0315  0.0087  1.0000  -12.7560   0.0000   0.2059
  17.500   1.5603   0.03844   0.03452   0.0312  0.0087  1.0000  -12.8009   0.0000   0.2058
  17.600   1.5587   0.03973   0.03586   0.0310  0.0087  1.0000  -12.8456   0.0000   0.2057
  17.700   1.5564   0.04117   0.03734   0.0306  0.0086  1.0000  -12.8825   0.0000   0.2057
  17.800   1.5539   0.04267   0.03889   0.0301  0.0086  1.0000  -12.9169   0.0000   0.2057
  17.900   1.5511   0.04424   0.04051   0.0296  0.0086  1.0000  -12.9480   0.0000   0.2057
  18.000   1.5474   0.04599   0.04231   0.0289  0.0086  1.0000  -12.9691   0.0000   0.2059
  18.100   1.5437   0.04775   0.04411   0.0282  0.0085  1.0000  -12.9904   0.0000   0.2060
  18.200   1.5390   0.04969   0.04610   0.0273  0.0085  1.0000  -13.0009   0.0000   0.2062
  18.300   1.5336   0.05176   0.04823   0.0264  0.0085  1.0000  -13.0040   0.0000   0.2065
  18.400   1.5283   0.05383   0.05034   0.0255  0.0085  1.0000  -13.0068   0.0000   0.2068
  18.500   1.5212   0.05617   0.05274   0.0244  0.0085  1.0000  -12.9916   0.0000   0.2072
  18.600   1.5135   0.05861   0.05523   0.0232  0.0085  1.0000  -12.9688   0.0000   0.2076
  18.700   1.5059   0.06103   0.05771   0.0221  0.0085  1.0000  -12.9472   0.0000   0.2080
  18.800   1.4966   0.06380   0.06054   0.0207  0.0085  1.0000  -12.9060   0.0000   0.2085
  18.900   1.4867   0.06672   0.06351   0.0192  0.0085  1.0000  -12.8567   0.0000   0.2092
  19.000   1.4772   0.06956   0.06641   0.0179  0.0085  1.0000  -12.8108   0.0000   0.2098
  19.100   1.4657   0.07277   0.06968   0.0162  0.0085  1.0000  -12.7429   0.0000   0.2105
  19.200   1.4532   0.07621   0.07318   0.0144  0.0085  1.0000  -12.6610   0.0000   0.2114
  19.300   1.4412   0.07953   0.07656   0.0128  0.0085  1.0000  -12.5840   0.0000   0.2122
  19.400   1.4277   0.08310   0.08019   0.0110  0.0085  1.0000  -12.4884   0.0000   0.2131
  19.500   1.4120   0.08705   0.08420   0.0090  0.0085  1.0000  -12.3677   0.0000   0.2142
  19.600   1.3972   0.09091   0.08813   0.0070  0.0085  1.0000  -12.2533   0.0000   0.2152
  19.700   1.3826   0.09479   0.09206   0.0050  0.0086  1.0000  -12.1378   0.0000   0.2164
  19.800   1.3649   0.09927   0.09661   0.0027  0.0086  1.0000  -11.9849   0.0000   0.2178
  19.900   1.3487   0.10353   0.10094   0.0005  0.0086  1.0000  -11.8442   0.0000   0.2192
  20.000   1.3330   0.10774   0.10520  -0.0017  0.0086  1.0000  -11.7056   0.0000   0.2206


