xflr5 v6.32

 Calculated polar for: NACA 0012

 1 1 Reynolds number fixed          Mach number fixed         

 xtrf =   1.000 (top)        1.000 (bottom)
 Mach =   0.000     Re =     0.130 e 6     Ncrit =   9.000

  alpha     CL        CD       CDp       Cm    Top Xtr Bot Xtr   Cpmin    Chinge    XCp    
 ------- -------- --------- --------- -------- ------- ------- -------- --------- ---------
 -15.000  -0.6944   0.17873   0.17386   0.0225  1.0000  0.0866  -1.9109   0.0000   0.2674
 -14.900  -0.6989   0.17707   0.17221   0.0203  1.0000  0.0869  -1.9662   0.0000   0.2642
 -14.800  -0.7026   0.17523   0.17039   0.0185  1.0000  0.0870  -2.0127   0.0000   0.2615
 -14.700  -0.7033   0.17247   0.16765   0.0175  1.0000  0.0873  -2.0361   0.0000   0.2601
 -14.600  -0.6901   0.16958   0.16473   0.0201  1.0000  0.0881  -1.9366   0.0000   0.2644
 -14.500  -0.6804   0.16816   0.16329   0.0214  1.0000  0.0888  -1.8660   0.0000   0.2669
 -14.400  -0.6721   0.16691   0.16203   0.0222  1.0000  0.0896  -1.8094   0.0000   0.2686
 -14.300  -0.6653   0.16566   0.16077   0.0227  1.0000  0.0905  -1.7655   0.0000   0.2697
 -14.200  -0.6603   0.16442   0.15953   0.0228  1.0000  0.0915  -1.7349   0.0000   0.2703
 -14.100  -0.6565   0.16314   0.15824   0.0226  1.0000  0.0926  -1.7143   0.0000   0.2704
 -14.000  -0.6538   0.16179   0.15689   0.0223  1.0000  0.0938  -1.7117   0.0000   0.2701
 -13.900  -0.6519   0.16037   0.15547   0.0218  1.0000  0.0951  -1.7152   0.0000   0.2696
 -13.800  -0.6511   0.15887   0.15397   0.0211  1.0000  0.0966  -1.7257   0.0000   0.2687
 -13.700  -0.6522   0.15727   0.15238   0.0201  1.0000  0.0984  -1.7486   0.0000   0.2671
 -13.600  -0.6630   0.15530   0.15043   0.0169  1.0000  0.1011  -1.8367   0.0000   0.2619
 -13.500  -0.6803   0.15299   0.14816   0.0122  1.0000  0.1023  -1.9701   0.0000   0.2545
 -13.400  -0.6882   0.15070   0.14590   0.0096  1.0000  0.1026  -2.0405   0.0000   0.2507
 -13.300  -0.6944   0.14827   0.14349   0.0075  1.0000  0.1027  -2.0996   0.0000   0.2476
 -13.200  -0.6980   0.14591   0.14114   0.0059  1.0000  0.1028  -2.1435   0.0000   0.2452
 -13.100  -0.6822   0.14330   0.13851   0.0094  1.0000  0.1039  -2.0503   0.0000   0.2506
 -13.000  -0.6595   0.14398   0.13915   0.0135  1.0000  0.1059  -1.8979   0.0000   0.2576
 -12.900  -0.6473   0.14398   0.13913   0.0152  1.0000  0.1083  -1.8194   0.0000   0.2607
 -12.800  -0.6430   0.14300   0.13814   0.0153  1.0000  0.1105  -1.7979   0.0000   0.2611
 -12.700  -0.6418   0.14160   0.13674   0.0148  1.0000  0.1126  -1.7990   0.0000   0.2605
 -12.600  -0.6435   0.13987   0.13502   0.0137  1.0000  0.1147  -1.8196   0.0000   0.2588
 -12.500  -0.6555   0.13741   0.13259   0.0104  1.0000  0.1176  -1.9057   0.0000   0.2536
 -12.400  -0.6760   0.13430   0.12954   0.0054  1.0000  0.1190  -2.0457   0.0000   0.2457
 -12.300  -0.6879   0.13145   0.12671   0.0022  1.0000  0.1193  -2.1300   0.0000   0.2411
 -12.200  -0.6979   0.12846   0.12375  -0.0005  1.0000  0.1195  -2.2019   0.0000   0.2373
 -12.100  -0.7043   0.12562   0.12092  -0.0026  1.0000  0.1196  -2.2559   0.0000   0.2344
 -12.000  -0.6773   0.12485   0.12012   0.0035  1.0000  0.1214  -2.0912   0.0000   0.2433
 -11.900  -0.6725   0.12340   0.11866   0.0039  1.0000  0.1218  -2.0713   0.0000   0.2440
 -11.800  -0.6698   0.12175   0.11701   0.0038  1.0000  0.1222  -2.0647   0.0000   0.2440
 -11.700  -0.6684   0.11997   0.11523   0.0035  1.0000  0.1225  -2.0658   0.0000   0.2437
 -11.600  -0.6687   0.11795   0.11321   0.0029  1.0000  0.1227  -2.0781   0.0000   0.2428
 -11.500  -0.6732   0.11522   0.11050   0.0014  1.0000  0.1226  -2.1189   0.0000   0.2407
 -11.400  -0.9805   0.05483   0.04889  -0.0320  1.0000  0.0560  -4.4762   0.0000   0.2051
 -11.300  -0.9877   0.05349   0.04744  -0.0308  1.0000  0.0561  -4.4963   0.0000   0.2067
 -11.200  -0.9931   0.05214   0.04595  -0.0298  1.0000  0.0563  -4.5113   0.0000   0.2080
 -11.100  -0.9974   0.05086   0.04454  -0.0287  1.0000  0.0566  -4.5211   0.0000   0.2093
 -11.000  -1.0007   0.04968   0.04322  -0.0277  1.0000  0.0570  -4.5259   0.0000   0.2106
 -10.900  -1.0030   0.04861   0.04199  -0.0266  1.0000  0.0575  -4.5262   0.0000   0.2118
 -10.800  -1.0045   0.04766   0.04088  -0.0255  1.0000  0.0581  -4.5216   0.0000   0.2131
 -10.700  -1.0051   0.04689   0.03994  -0.0244  1.0000  0.0586  -4.5113   0.0000   0.2143
 -10.600  -1.0048   0.04635   0.03923  -0.0233  1.0000  0.0591  -4.4939   0.0000   0.2155
 -10.500  -1.0068   0.04453   0.03726  -0.0224  1.0000  0.0596  -4.5030   0.0000   0.2166
 -10.400  -1.0059   0.04252   0.03515  -0.0218  1.0000  0.0604  -4.4964   0.0000   0.2173
 -10.300  -1.0010   0.04134   0.03397  -0.0214  1.0000  0.0613  -4.4560   0.0000   0.2176
 -10.200  -0.9952   0.04054   0.03316  -0.0210  1.0000  0.0622  -4.4077   0.0000   0.2180
 -10.100  -0.9898   0.03978   0.03237  -0.0205  1.0000  0.0630  -4.3644   0.0000   0.2186
 -10.000  -0.9848   0.03897   0.03148  -0.0199  1.0000  0.0637  -4.3275   0.0000   0.2192
  -9.900  -0.9798   0.03810   0.03052  -0.0192  1.0000  0.0643  -4.2948   0.0000   0.2199
  -9.800  -0.9742   0.03726   0.02959  -0.0186  1.0000  0.0651  -4.2598   0.0000   0.2205
  -9.700  -0.9685   0.03642   0.02866  -0.0180  1.0000  0.0658  -4.2252   0.0000   0.2211
  -9.600  -0.9626   0.03559   0.02773  -0.0174  1.0000  0.0667  -4.1910   0.0000   0.2217
  -9.500  -0.9566   0.03479   0.02677  -0.0167  1.0000  0.0676  -4.1576   0.0000   0.2224
  -9.400  -0.9504   0.03400   0.02586  -0.0161  1.0000  0.0685  -4.1224   0.0000   0.2231
  -9.300  -0.9440   0.03325   0.02499  -0.0155  1.0000  0.0695  -4.0861   0.0000   0.2237
  -9.200  -0.9373   0.03256   0.02416  -0.0148  1.0000  0.0705  -4.0484   0.0000   0.2244
  -9.100  -0.9304   0.03195   0.02342  -0.0142  1.0000  0.0714  -4.0086   0.0000   0.2251
  -9.000  -0.9234   0.03145   0.02278  -0.0135  1.0000  0.0722  -3.9659   0.0000   0.2258
  -8.900  -0.9162   0.03018   0.02143  -0.0131  1.0000  0.0735  -3.9320   0.0000   0.2262
  -8.800  -0.9080   0.02917   0.02045  -0.0129  1.0000  0.0750  -3.8819   0.0000   0.2264
  -8.700  -0.8997   0.02858   0.01989  -0.0125  1.0000  0.0765  -3.8247   0.0000   0.2268
  -8.600  -0.8916   0.02809   0.01941  -0.0121  1.0000  0.0780  -3.7676   0.0000   0.2272
  -8.500  -0.8836   0.02769   0.01899  -0.0117  1.0000  0.0799  -3.7104   0.0000   0.2277
  -8.400  -0.8758   0.02733   0.01858  -0.0112  1.0000  0.0821  -3.6547   0.0000   0.2282
  -8.300  -0.8681   0.02699   0.01816  -0.0106  1.0000  0.0844  -3.6008   0.0000   0.2289
  -8.200  -0.8603   0.02674   0.01779  -0.0100  1.0000  0.0864  -3.5480   0.0000   0.2296
  -8.100  -0.8521   0.02584   0.01688  -0.0096  1.0000  0.0888  -3.5001   0.0000   0.2299
  -8.000  -0.8439   0.02523   0.01634  -0.0093  1.0000  0.0912  -3.4421   0.0000   0.2303
  -7.900  -0.8357   0.02483   0.01598  -0.0089  1.0000  0.0935  -3.3837   0.0000   0.2308
  -7.800  -0.8275   0.02443   0.01558  -0.0084  1.0000  0.0960  -3.3281   0.0000   0.2314
  -7.700  -0.8191   0.02403   0.01513  -0.0079  1.0000  0.0986  -3.2749   0.0000   0.2320
  -7.600  -0.8107   0.02367   0.01468  -0.0073  1.0000  0.1011  -3.2227   0.0000   0.2327
  -7.500  -0.8023   0.02314   0.01411  -0.0068  1.0000  0.1037  -3.1719   0.0000   0.2333
  -7.400  -0.7945   0.02246   0.01354  -0.0064  1.0000  0.1069  -3.1174   0.0000   0.2339
  -7.300  -0.7867   0.02209   0.01315  -0.0059  1.0000  0.1101  -3.0587   0.0000   0.2346
  -7.200  -0.7787   0.02177   0.01282  -0.0053  1.0000  0.1138  -3.0037   0.0000   0.2353
  -7.100  -0.7705   0.02151   0.01250  -0.0048  1.0000  0.1179  -2.9492   0.0000   0.2360
  -7.000  -0.7631   0.02099   0.01202  -0.0042  1.0000  0.1223  -2.9037   0.0000   0.2368
  -6.900  -0.7558   0.02062   0.01173  -0.0036  1.0000  0.1269  -2.8581   0.0000   0.2376
  -6.800  -0.7481   0.02036   0.01147  -0.0030  1.0000  0.1322  -2.8130   0.0000   0.2384
  -6.700  -0.7398   0.02016   0.01117  -0.0024  1.0000  0.1375  -2.7696   0.0000   0.2393
  -6.600  -0.7332   0.01957   0.01075  -0.0018  1.0000  0.1433  -2.7287   0.0000   0.2402
  -6.500  -0.7256   0.01928   0.01049  -0.0012  1.0000  0.1495  -2.6843   0.0000   0.2412
  -6.400  -0.7174   0.01905   0.01019  -0.0006  1.0000  0.1563  -2.6409   0.0000   0.2420
  -6.300  -0.7110   0.01854   0.00984   0.0001  1.0000  0.1633  -2.5999   0.0000   0.2431
  -6.200  -0.7033   0.01827   0.00959   0.0008  1.0000  0.1715  -2.5555   0.0000   0.2441
  -6.100  -0.6961   0.01793   0.00929   0.0014  1.0000  0.1805  -2.5127   0.0000   0.2451
  -6.000  -0.6889   0.01763   0.00908   0.0021  1.0000  0.1902  -2.4681   0.0000   0.2462
  -5.900  -0.6815   0.01733   0.00882   0.0027  1.0000  0.2012  -2.4244   0.0000   0.2472
  -5.800  -0.6744   0.01704   0.00862   0.0034  1.0000  0.2126  -2.3800   0.0000   0.2484
  -5.700  -0.6671   0.01674   0.00839   0.0040  1.0000  0.2249  -2.3361   0.0000   0.2495
  -5.600  -0.6597   0.01649   0.00819   0.0046  1.0000  0.2383  -2.2912   0.0000   0.2506
  -5.500  -0.6527   0.01619   0.00800   0.0053  1.0000  0.2514  -2.2472   0.0000   0.2518
  -5.400  -0.6448   0.01599   0.00782   0.0059  1.0000  0.2665  -2.2014   0.0000   0.2529
  -5.300  -0.6379   0.01570   0.00767   0.0066  1.0000  0.2806  -2.1568   0.0000   0.2541
  -5.200  -0.6303   0.01549   0.00746   0.0072  1.0000  0.2958  -2.1094   0.0000   0.2553
  -5.100  -0.6227   0.01529   0.00733   0.0078  1.0000  0.3118  -2.0639   0.0000   0.2565
  -5.000  -0.6153   0.01507   0.00721   0.0084  1.0000  0.3267  -2.0189   0.0000   0.2578
  -4.900  -0.6073   0.01492   0.00708   0.0090  1.0000  0.3429  -1.9729   0.0000   0.2590
  -4.800  -0.5999   0.01471   0.00699   0.0096  1.0000  0.3579  -1.9280   0.0000   0.2603
  -4.700  -0.5920   0.01455   0.00689   0.0102  1.0000  0.3734  -1.8824   0.0000   0.2616
  -4.600  -0.5841   0.01440   0.00680   0.0108  1.0000  0.3892  -1.8370   0.0000   0.2629
  -4.500  -0.5762   0.01424   0.00672   0.0114  1.0000  0.4040  -1.7967   0.0000   0.2643
  -4.400  -0.5680   0.01413   0.00663   0.0120  1.0000  0.4200  -1.7582   0.0000   0.2656
  -4.300  -0.5601   0.01397   0.00657   0.0126  1.0000  0.4342  -1.7200   0.0000   0.2671
  -4.200  -0.5517   0.01388   0.00649   0.0131  1.0000  0.4501  -1.6816   0.0000   0.2684
  -4.100  -0.5438   0.01372   0.00646   0.0137  1.0000  0.4642  -1.6436   0.0000   0.2700
  -4.000  -0.5353   0.01364   0.00638   0.0142  1.0000  0.4799  -1.6053   0.0000   0.2714
  -3.900  -0.5272   0.01351   0.00636   0.0148  1.0000  0.4939  -1.5674   0.0000   0.2730
  -3.800  -0.5187   0.01343   0.00629   0.0153  1.0000  0.5090  -1.5295   0.0000   0.2745
  -3.700  -0.5104   0.01331   0.00628   0.0159  1.0000  0.5229  -1.4917   0.0000   0.2762
  -3.600  -0.5019   0.01325   0.00623   0.0163  1.0000  0.5381  -1.4541   0.0000   0.2778
  -3.500  -0.4935   0.01314   0.00623   0.0169  1.0000  0.5519  -1.4166   0.0000   0.2796
  -3.400  -0.4849   0.01309   0.00618   0.0174  1.0000  0.5670  -1.3794   0.0000   0.2812
  -3.300  -0.4764   0.01299   0.00619   0.0180  1.0000  0.5804  -1.3421   0.0000   0.2832
  -3.100  -0.4592   0.01287   0.00614   0.0190  1.0000  0.6088  -1.2680   0.0000   0.2870
  -3.000  -0.4505   0.01283   0.00611   0.0195  1.0000  0.6241  -1.2368   0.0000   0.2889
  -2.900  -0.4418   0.01277   0.00615   0.0201  1.0000  0.6370  -1.2053   0.0000   0.2912
  -2.800  -0.4331   0.01274   0.00614   0.0205  1.0000  0.6522  -1.1744   0.0000   0.2932
  -2.700  -0.4243   0.01270   0.00619   0.0211  1.0000  0.6651  -1.1433   0.0000   0.2956
  -2.600  -0.4157   0.01268   0.00620   0.0216  1.0000  0.6800  -1.1129   0.0000   0.2979
  -2.500  -0.4070   0.01265   0.00625   0.0222  1.0000  0.6929  -1.0824   0.0000   0.3005
  -2.400  -0.3985   0.01264   0.00629   0.0227  1.0000  0.7076  -1.0525   0.0000   0.3031
  -2.300  -0.3899   0.01264   0.00634   0.0233  1.0000  0.7205  -1.0226   0.0000   0.3060
  -2.200  -0.3816   0.01264   0.00640   0.0239  1.0000  0.7348  -0.9933   0.0000   0.3090
  -2.100  -0.3732   0.01265   0.00646   0.0246  1.0000  0.7480  -0.9674   0.0000   0.3121
  -2.000  -0.3651   0.01268   0.00654   0.0252  1.0000  0.7618  -0.9425   0.0000   0.3155
  -1.900  -0.3570   0.01271   0.00661   0.0259  1.0000  0.7752  -0.9179   0.0000   0.3190
  -1.800  -0.3492   0.01275   0.00671   0.0267  1.0000  0.7885  -0.8937   0.0000   0.3229
  -1.700  -0.3413   0.01280   0.00679   0.0273  1.0000  0.8021  -0.8697   0.0000   0.3267
  -1.600  -0.3337   0.01287   0.00691   0.0282  1.0000  0.8152  -0.8461   0.0000   0.3311
  -1.500  -0.3262   0.01294   0.00700   0.0289  1.0000  0.8288  -0.8232   0.0000   0.3354
  -1.400  -0.3187   0.01303   0.00714   0.0298  1.0000  0.8418  -0.8027   0.0000   0.3403
  -1.300  -0.3036   0.01314   0.00727   0.0291  0.9973  0.8553  -0.7739   0.0000   0.3427
  -1.200  -0.2843   0.01331   0.00745   0.0277  0.9939  0.8678  -0.7403   0.0000   0.3445
  -1.100  -0.2656   0.01343   0.00755   0.0264  0.9900  0.8801  -0.7087   0.0000   0.3464
  -1.000  -0.2459   0.01359   0.00770   0.0250  0.9860  0.8905  -0.6789   0.0000   0.3486
  -0.900  -0.2258   0.01372   0.00783   0.0233  0.9824  0.9021  -0.6490   0.0000   0.3504
  -0.800  -0.2016   0.01390   0.00801   0.0210  0.9801  0.9096  -0.6172   0.0000   0.3514
  -0.700  -0.1824   0.01400   0.00810   0.0196  0.9754  0.9190  -0.5915   0.0000   0.3547
  -0.600  -0.1603   0.01411   0.00820   0.0176  0.9715  0.9264  -0.5643   0.0000   0.3571
  -0.500  -0.1340   0.01425   0.00832   0.0148  0.9688  0.9318  -0.5357   0.0000   0.3578
  -0.400  -0.1077   0.01435   0.00842   0.0120  0.9662  0.9376  -0.5082   0.0000   0.3585
  -0.300  -0.0828   0.01443   0.00849   0.0094  0.9637  0.9443  -0.4836   0.0000   0.3605
  -0.200  -0.0569   0.01449   0.00854   0.0066  0.9599  0.9476  -0.4591   0.0000   0.3632
  -0.100  -0.0292   0.01453   0.00859   0.0035  0.9564  0.9506  -0.4348   0.0000   0.3657
   0.000   0.0000   0.01455   0.00860  -0.0000  0.9534  0.9534  -0.4107   0.0000   0.3665
   0.100   0.0292   0.01453   0.00859  -0.0035  0.9506  0.9564  -0.4348   0.0000   0.3657
   0.200   0.0568   0.01449   0.00854  -0.0066  0.9476  0.9599  -0.4591   0.0000   0.3632
   0.300   0.0828   0.01443   0.00848  -0.0094  0.9443  0.9637  -0.4836   0.0000   0.3605
   0.400   0.1077   0.01435   0.00842  -0.0120  0.9376  0.9662  -0.5082   0.0000   0.3585
   0.500   0.1340   0.01425   0.00832  -0.0148  0.9318  0.9688  -0.5357   0.0000   0.3578
   0.600   0.1603   0.01411   0.00820  -0.0176  0.9264  0.9715  -0.5643   0.0000   0.3571
   0.700   0.1824   0.01400   0.00810  -0.0196  0.9190  0.9754  -0.5915   0.0000   0.3547
   0.800   0.2016   0.01390   0.00801  -0.0210  0.9096  0.9801  -0.6172   0.0000   0.3514
   0.900   0.2258   0.01372   0.00782  -0.0233  0.9021  0.9824  -0.6490   0.0000   0.3504
   1.000   0.2459   0.01358   0.00770  -0.0250  0.8905  0.9860  -0.6789   0.0000   0.3486
   1.100   0.2656   0.01343   0.00754  -0.0264  0.8801  0.9900  -0.7087   0.0000   0.3464
   1.200   0.2843   0.01331   0.00745  -0.0277  0.8678  0.9939  -0.7403   0.0000   0.3445
   1.300   0.3036   0.01314   0.00727  -0.0291  0.8554  0.9974  -0.7740   0.0000   0.3427
   1.400   0.3186   0.01303   0.00714  -0.0297  0.8418  1.0000  -0.8026   0.0000   0.3402
   1.500   0.3261   0.01293   0.00700  -0.0289  0.8288  1.0000  -0.8231   0.0000   0.3354
   1.600   0.3336   0.01287   0.00691  -0.0282  0.8152  1.0000  -0.8459   0.0000   0.3311
   1.700   0.3412   0.01280   0.00679  -0.0273  0.8022  1.0000  -0.8696   0.0000   0.3267
   1.800   0.3491   0.01275   0.00670  -0.0266  0.7886  1.0000  -0.8935   0.0000   0.3229
   1.900   0.3569   0.01270   0.00660  -0.0259  0.7752  1.0000  -0.9177   0.0000   0.3189
   2.000   0.3650   0.01268   0.00654  -0.0252  0.7618  1.0000  -0.9424   0.0000   0.3155
   2.100   0.3731   0.01265   0.00646  -0.0245  0.7480  1.0000  -0.9672   0.0000   0.3121
   2.200   0.3815   0.01264   0.00640  -0.0239  0.7347  1.0000  -0.9932   0.0000   0.3089
   2.300   0.3898   0.01263   0.00634  -0.0233  0.7206  1.0000  -1.0224   0.0000   0.3060
   2.400   0.3984   0.01264   0.00628  -0.0227  0.7075  1.0000  -1.0523   0.0000   0.3031
   2.500   0.4069   0.01265   0.00625  -0.0222  0.6930  1.0000  -1.0822   0.0000   0.3005
   2.600   0.4156   0.01268   0.00620  -0.0216  0.6800  1.0000  -1.1127   0.0000   0.2979
   2.700   0.4242   0.01269   0.00619  -0.0211  0.6651  1.0000  -1.1431   0.0000   0.2956
   2.800   0.4329   0.01274   0.00614  -0.0205  0.6522  1.0000  -1.1742   0.0000   0.2932
   2.900   0.4417   0.01277   0.00615  -0.0201  0.6371  1.0000  -1.2051   0.0000   0.2911
   3.000   0.4504   0.01283   0.00611  -0.0195  0.6241  1.0000  -1.2366   0.0000   0.2889
   3.100   0.4591   0.01286   0.00613  -0.0190  0.6088  1.0000  -1.2678   0.0000   0.2870
   3.300   0.4763   0.01299   0.00619  -0.0180  0.5804  1.0000  -1.3418   0.0000   0.2831
   3.400   0.4847   0.01309   0.00618  -0.0174  0.5670  1.0000  -1.3791   0.0000   0.2812
   3.500   0.4934   0.01314   0.00623  -0.0169  0.5519  1.0000  -1.4164   0.0000   0.2796
   3.600   0.5017   0.01325   0.00622  -0.0163  0.5382  1.0000  -1.4539   0.0000   0.2777
   3.700   0.5103   0.01331   0.00628  -0.0158  0.5230  1.0000  -1.4915   0.0000   0.2762
   3.800   0.5186   0.01343   0.00629  -0.0152  0.5091  1.0000  -1.5292   0.0000   0.2745
   3.900   0.5271   0.01350   0.00636  -0.0148  0.4939  1.0000  -1.5672   0.0000   0.2730
   4.000   0.5352   0.01364   0.00638  -0.0142  0.4799  1.0000  -1.6051   0.0000   0.2714
   4.100   0.5437   0.01372   0.00645  -0.0137  0.4643  1.0000  -1.6433   0.0000   0.2700
   4.200   0.5516   0.01388   0.00648  -0.0130  0.4502  1.0000  -1.6813   0.0000   0.2684
   4.300   0.5600   0.01396   0.00657  -0.0125  0.4343  1.0000  -1.7198   0.0000   0.2670
   4.400   0.5679   0.01412   0.00663  -0.0119  0.4201  1.0000  -1.7579   0.0000   0.2656
   4.500   0.5761   0.01424   0.00672  -0.0114  0.4041  1.0000  -1.7965   0.0000   0.2643
   4.600   0.5840   0.01440   0.00680  -0.0108  0.3893  1.0000  -1.8367   0.0000   0.2629
   4.700   0.5918   0.01455   0.00688  -0.0102  0.3734  1.0000  -1.8821   0.0000   0.2616
   4.800   0.5998   0.01471   0.00699  -0.0096  0.3580  1.0000  -1.9277   0.0000   0.2603
   4.900   0.6072   0.01492   0.00708  -0.0090  0.3429  1.0000  -1.9727   0.0000   0.2590
   5.000   0.6152   0.01507   0.00721  -0.0084  0.3267  1.0000  -2.0187   0.0000   0.2578
   5.100   0.6226   0.01529   0.00733  -0.0078  0.3118  1.0000  -2.0636   0.0000   0.2565
   5.200   0.6302   0.01549   0.00746  -0.0072  0.2959  1.0000  -2.1092   0.0000   0.2553
   5.300   0.6378   0.01570   0.00767  -0.0066  0.2807  1.0000  -2.1566   0.0000   0.2541
   5.400   0.6447   0.01599   0.00782  -0.0059  0.2665  1.0000  -2.2011   0.0000   0.2528
   5.500   0.6526   0.01619   0.00800  -0.0053  0.2514  1.0000  -2.2470   0.0000   0.2518
   5.600   0.6596   0.01649   0.00819  -0.0046  0.2384  1.0000  -2.2910   0.0000   0.2506
   5.700   0.6671   0.01674   0.00838  -0.0040  0.2250  1.0000  -2.3359   0.0000   0.2494
   5.800   0.6743   0.01704   0.00861  -0.0033  0.2127  1.0000  -2.3797   0.0000   0.2483
   5.900   0.6814   0.01733   0.00882  -0.0027  0.2012  1.0000  -2.4242   0.0000   0.2472
   6.000   0.6889   0.01763   0.00907  -0.0020  0.1903  1.0000  -2.4679   0.0000   0.2462
   6.100   0.6960   0.01792   0.00929  -0.0014  0.1805  1.0000  -2.5125   0.0000   0.2451
   6.200   0.7033   0.01827   0.00959  -0.0007  0.1716  1.0000  -2.5553   0.0000   0.2441
   6.300   0.7109   0.01854   0.00984  -0.0001  0.1633  1.0000  -2.5998   0.0000   0.2431
   6.400   0.7173   0.01905   0.01019   0.0006  0.1563  1.0000  -2.6407   0.0000   0.2420
   6.500   0.7256   0.01928   0.01049   0.0012  0.1495  1.0000  -2.6841   0.0000   0.2411
   6.600   0.7331   0.01957   0.01075   0.0018  0.1433  1.0000  -2.7286   0.0000   0.2402
   6.700   0.7397   0.02016   0.01117   0.0024  0.1375  1.0000  -2.7694   0.0000   0.2393
   6.800   0.7480   0.02036   0.01147   0.0030  0.1322  1.0000  -2.8129   0.0000   0.2384
   6.900   0.7558   0.02062   0.01173   0.0036  0.1269  1.0000  -2.8580   0.0000   0.2376
   7.000   0.7630   0.02099   0.01202   0.0042  0.1223  1.0000  -2.9036   0.0000   0.2368
   7.100   0.7705   0.02151   0.01249   0.0048  0.1179  1.0000  -2.9491   0.0000   0.2360
   7.200   0.7787   0.02177   0.01282   0.0053  0.1138  1.0000  -3.0036   0.0000   0.2353
   7.300   0.7867   0.02209   0.01315   0.0059  0.1101  1.0000  -3.0587   0.0000   0.2345
   7.400   0.7945   0.02246   0.01353   0.0064  0.1069  1.0000  -3.1174   0.0000   0.2339
   7.500   0.8023   0.02314   0.01410   0.0068  0.1037  1.0000  -3.1718   0.0000   0.2333
   7.600   0.8107   0.02366   0.01467   0.0073  0.1011  1.0000  -3.2227   0.0000   0.2327
   7.700   0.8191   0.02403   0.01512   0.0079  0.0986  1.0000  -3.2749   0.0000   0.2320
   7.800   0.8275   0.02443   0.01557   0.0084  0.0960  1.0000  -3.3281   0.0000   0.2314
   7.900   0.8358   0.02483   0.01598   0.0089  0.0935  1.0000  -3.3837   0.0000   0.2308
   8.000   0.8439   0.02522   0.01634   0.0093  0.0912  1.0000  -3.4422   0.0000   0.2303
   8.100   0.8521   0.02583   0.01688   0.0096  0.0888  1.0000  -3.5002   0.0000   0.2299
   8.200   0.8603   0.02673   0.01779   0.0100  0.0864  1.0000  -3.5481   0.0000   0.2296
   8.300   0.8681   0.02699   0.01816   0.0106  0.0844  1.0000  -3.6009   0.0000   0.2289
   8.400   0.8759   0.02733   0.01858   0.0111  0.0821  1.0000  -3.6549   0.0000   0.2282
   8.500   0.8837   0.02769   0.01899   0.0117  0.0799  1.0000  -3.7106   0.0000   0.2277
   8.600   0.8916   0.02809   0.01941   0.0121  0.0780  1.0000  -3.7678   0.0000   0.2272
   8.700   0.8998   0.02858   0.01988   0.0125  0.0765  1.0000  -3.8249   0.0000   0.2268
   8.800   0.9080   0.02917   0.02045   0.0128  0.0750  1.0000  -3.8822   0.0000   0.2264
   8.900   0.9163   0.03018   0.02144   0.0131  0.0735  1.0000  -3.9322   0.0000   0.2262
   9.000   0.9235   0.03145   0.02278   0.0135  0.0722  1.0000  -3.9662   0.0000   0.2258
   9.100   0.9305   0.03195   0.02342   0.0142  0.0714  1.0000  -4.0088   0.0000   0.2251
   9.200   0.9374   0.03256   0.02416   0.0148  0.0705  1.0000  -4.0487   0.0000   0.2244
   9.300   0.9441   0.03325   0.02499   0.0154  0.0695  1.0000  -4.0864   0.0000   0.2237
   9.400   0.9505   0.03400   0.02586   0.0161  0.0685  1.0000  -4.1227   0.0000   0.2231
   9.500   0.9568   0.03479   0.02677   0.0167  0.0676  1.0000  -4.1580   0.0000   0.2224
   9.600   0.9628   0.03560   0.02773   0.0173  0.0667  1.0000  -4.1914   0.0000   0.2218
   9.700   0.9686   0.03642   0.02866   0.0180  0.0658  1.0000  -4.2256   0.0000   0.2211
   9.800   0.9744   0.03726   0.02959   0.0186  0.0651  1.0000  -4.2602   0.0000   0.2205
   9.900   0.9800   0.03811   0.03052   0.0192  0.0643  1.0000  -4.2952   0.0000   0.2199
  10.000   0.9850   0.03898   0.03149   0.0198  0.0637  1.0000  -4.3280   0.0000   0.2192
  10.100   0.9900   0.03979   0.03237   0.0204  0.0629  1.0000  -4.3650   0.0000   0.2186
  10.200   0.9954   0.04054   0.03317   0.0210  0.0622  1.0000  -4.4085   0.0000   0.2181
  10.300   1.0012   0.04135   0.03398   0.0214  0.0613  1.0000  -4.4569   0.0000   0.2177
  10.400   1.0061   0.04253   0.03517   0.0217  0.0604  1.0000  -4.4970   0.0000   0.2173
  10.500   1.0070   0.04456   0.03729   0.0223  0.0596  1.0000  -4.5030   0.0000   0.2167
  10.600   1.0051   0.04635   0.03923   0.0233  0.0591  1.0000  -4.4945   0.0000   0.2156
  10.700   1.0054   0.04689   0.03995   0.0244  0.0586  1.0000  -4.5119   0.0000   0.2143
  10.800   1.0048   0.04767   0.04089   0.0255  0.0581  1.0000  -4.5222   0.0000   0.2131
  10.900   1.0033   0.04862   0.04200   0.0265  0.0575  1.0000  -4.5268   0.0000   0.2119
  11.000   1.0010   0.04970   0.04324   0.0276  0.0570  1.0000  -4.5265   0.0000   0.2107
  11.100   0.9978   0.05088   0.04457   0.0286  0.0566  1.0000  -4.5216   0.0000   0.2094
  11.200   0.9935   0.05216   0.04598   0.0297  0.0563  1.0000  -4.5118   0.0000   0.2081
  11.300   0.9881   0.05353   0.04747   0.0307  0.0561  1.0000  -4.4967   0.0000   0.2068
  11.400   0.9810   0.05487   0.04893   0.0319  0.0560  1.0000  -4.4764   0.0000   0.2052
  11.500   0.9729   0.05629   0.05045   0.0330  0.0560  1.0000  -4.4525   0.0000   0.2036
  11.600   0.9641   0.05780   0.05207   0.0339  0.0560  1.0000  -4.4251   0.0000   0.2023
  11.700   0.9546   0.05944   0.05381   0.0345  0.0560  1.0000  -4.3939   0.0000   0.2011
  11.800   0.9445   0.06123   0.05570   0.0348  0.0561  1.0000  -4.3584   0.0000   0.2003
  11.900   0.9337   0.06319   0.05775   0.0347  0.0562  1.0000  -4.3185   0.0000   0.1997
  12.000   0.9221   0.06536   0.06001   0.0343  0.0564  1.0000  -4.2734   0.0000   0.1996
  12.100   0.9099   0.06777   0.06250   0.0334  0.0565  1.0000  -4.2226   0.0000   0.1998
  12.200   0.8970   0.07046   0.06527   0.0321  0.0567  1.0000  -4.1653   0.0000   0.2005
  12.300   0.8834   0.07349   0.06838   0.0303  0.0570  1.0000  -4.1003   0.0000   0.2018
  12.400   0.8690   0.07689   0.07185   0.0281  0.0573  1.0000  -4.0268   0.0000   0.2035
  12.500   0.8541   0.08067   0.07569   0.0255  0.0577  1.0000  -3.9441   0.0000   0.2058
  12.600   0.8389   0.08483   0.07991   0.0227  0.0580  1.0000  -3.8528   0.0000   0.2084
  12.700   0.8243   0.08921   0.08432   0.0198  0.0584  1.0000  -3.7576   0.0000   0.2113
  12.800   0.8115   0.09354   0.08868   0.0173  0.0588  1.0000  -3.6661   0.0000   0.2139
  12.900   0.8014   0.09753   0.09267   0.0153  0.0591  1.0000  -3.5873   0.0000   0.2160
  13.100   0.1655   0.03102   0.02747   0.0311  0.1373  1.0000  -0.6588   0.0000   0.0771
  13.200   0.1597   0.03141   0.02784   0.0303  0.1369  1.0000  -0.6253   0.0000   0.0764
  13.300   0.1503   0.03157   0.02795   0.0291  0.1361  1.0000  -0.5789   0.0000   0.0737
  13.400   0.1416   0.03165   0.02801   0.0279  0.1335  1.0000  -0.5312   0.0000   0.0722
  13.500   0.1410   0.03213   0.02848   0.0275  0.1309  1.0000  -0.5218   0.0000   0.0744
  13.600   0.1426   0.03269   0.02902   0.0274  0.1287  1.0000  -0.5234   0.0000   0.0773
  13.700   0.1453   0.03327   0.02960   0.0274  0.1267  1.0000  -0.5304   0.0000   0.0806
  13.800   0.1490   0.03387   0.03022   0.0274  0.1250  1.0000  -0.5409   0.0000   0.0841
  13.900   0.1539   0.03452   0.03087   0.0277  0.1234  1.0000  -0.5589   0.0000   0.0878
  14.000   0.1609   0.03530   0.03164   0.0281  0.1221  1.0000  -0.5872   0.0000   0.0918
  14.100   0.1723   0.03647   0.03281   0.0289  0.1209  1.0000  -0.6350   0.0000   0.0966
  14.200   0.1911   0.03913   0.03546   0.0304  0.1196  1.0000  -0.7100   0.0000   0.1031
  14.300   0.1887   0.03974   0.03607   0.0296  0.1195  1.0000  -0.6853   0.0000   0.1058
  14.400   0.1847   0.04023   0.03654   0.0286  0.1192  1.0000  -0.6536   0.0000   0.1086
  14.500   0.1780   0.04046   0.03675   0.0273  0.1187  1.0000  -0.6103   0.0000   0.1110
  14.600   0.1700   0.04043   0.03670   0.0257  0.1172  1.0000  -0.5586   0.0000   0.1140
  14.700   0.1684   0.04088   0.03714   0.0249  0.1148  1.0000  -0.5374   0.0000   0.1179
  14.800   0.1700   0.04157   0.03783   0.0245  0.1128  1.0000  -0.5333   0.0000   0.1218
  14.900   0.1726   0.04231   0.03857   0.0241  0.1110  1.0000  -0.5348   0.0000   0.1255
  15.000   0.1758   0.04308   0.03933   0.0239  0.1095  1.0000  -0.5399   0.0000   0.1290
  15.100   0.1795   0.04387   0.04012   0.0237  0.1081  1.0000  -0.5483   0.0000   0.1324
  15.200   0.1838   0.04471   0.04095   0.0236  0.1069  1.0000  -0.5604   0.0000   0.1355
  15.300   0.1891   0.04562   0.04185   0.0236  0.1058  1.0000  -0.5771   0.0000   0.1384
  15.400   0.1956   0.04670   0.04293   0.0237  0.1048  1.0000  -0.6003   0.0000   0.1410
  15.500   0.2073   0.04839   0.04462   0.0245  0.1037  1.0000  -0.6487   0.0000   0.1430
  15.600   0.2203   0.05129   0.04751   0.0252  0.1026  1.0000  -0.6922   0.0000   0.1455
  15.700   0.2162   0.05168   0.04789   0.0239  0.1024  1.0000  -0.6547   0.0000   0.1497
  15.800   0.2104   0.05177   0.04797   0.0224  0.1019  1.0000  -0.6093   0.0000   0.1543
  15.900   0.2042   0.05164   0.04783   0.0209  0.1004  1.0000  -0.5597   0.0000   0.1594
  16.000   0.2035   0.05210   0.04828   0.0200  0.0975  1.0000  -0.5382   0.0000   0.1635
  16.100   0.2061   0.05286   0.04905   0.0195  0.0947  1.0000  -0.5375   0.0000   0.1666
  16.200   0.2099   0.05371   0.04989   0.0193  0.0926  1.0000  -0.5449   0.0000   0.1691
  16.300   0.2143   0.05464   0.05082   0.0191  0.0911  1.0000  -0.5545   0.0000   0.1714
  16.400   0.2196   0.05567   0.05185   0.0190  0.0899  1.0000  -0.5693   0.0000   0.1733
  16.500   0.2266   0.05695   0.05313   0.0192  0.0889  1.0000  -0.5947   0.0000   0.1746
  16.600   0.2381   0.05902   0.05520   0.0198  0.0879  1.0000  -0.6552   0.0000   0.1747
  16.700   0.2523   0.06256   0.05874   0.0207  0.0870  1.0000  -0.7201   0.0000   0.1749
  16.800   0.2510   0.06328   0.05944   0.0196  0.0869  1.0000  -0.6962   0.0000   0.1789
  16.900   0.2483   0.06378   0.05993   0.0184  0.0867  1.0000  -0.6653   0.0000   0.1832
  17.000   0.2449   0.06403   0.06017   0.0171  0.0863  1.0000  -0.6294   0.0000   0.1878
  17.100   0.2411   0.06406   0.06020   0.0157  0.0855  1.0000  -0.5895   0.0000   0.1928
  17.200   0.2400   0.06448   0.06062   0.0147  0.0839  1.0000  -0.5649   0.0000   0.1970
  17.300   0.2416   0.06535   0.06148   0.0140  0.0823  1.0000  -0.5595   0.0000   0.2001
  17.400   0.2442   0.06633   0.06246   0.0135  0.0809  1.0000  -0.5611   0.0000   0.2027
  17.500   0.2472   0.06737   0.06349   0.0130  0.0796  1.0000  -0.5662   0.0000   0.2051
  17.600   0.2505   0.06841   0.06454   0.0125  0.0785  1.0000  -0.5739   0.0000   0.2072
  17.700   0.2540   0.06949   0.06564   0.0121  0.0774  1.0000  -0.5824   0.0000   0.2092
  17.800   0.2579   0.07059   0.06674   0.0118  0.0764  1.0000  -0.5948   0.0000   0.2109
  17.900   0.2622   0.07175   0.06790   0.0115  0.0756  1.0000  -0.6107   0.0000   0.2124
  18.000   0.2670   0.07301   0.06916   0.0112  0.0748  1.0000  -0.6310   0.0000   0.2136
  18.100   0.2727   0.07448   0.07063   0.0111  0.0742  1.0000  -0.6573   0.0000   0.2145
  18.200   0.2800   0.07637   0.07251   0.0112  0.0735  1.0000  -0.6935   0.0000   0.2147
  18.300   0.2915   0.07943   0.07558   0.0117  0.0729  1.0000  -0.7529   0.0000   0.2135
  18.500   0.7729   0.23488   0.23001  -0.0467  0.0591  1.0000  -1.9668   0.0000   0.2909
  18.600   0.7721   0.23566   0.23078  -0.0484  0.0590  1.0000  -1.9228   0.0000   0.2931
  18.700   0.7695   0.23587   0.23097  -0.0505  0.0588  1.0000  -1.8663   0.0000   0.2958
  18.800   0.7665   0.23579   0.23088  -0.0530  0.0585  1.0000  -1.7976   0.0000   0.2992
  18.900   0.7644   0.23595   0.23103  -0.0558  0.0576  1.0000  -1.7206   0.0000   0.3028
  19.000   0.7656   0.23708   0.23215  -0.0576  0.0563  1.0000  -1.6805   0.0000   0.3049
  19.100   0.7680   0.23846   0.23353  -0.0587  0.0551  1.0000  -1.6639   0.0000   0.3059
  19.200   0.7708   0.23985   0.23492  -0.0596  0.0541  1.0000  -1.6550   0.0000   0.3066
  19.300   0.7737   0.24124   0.23631  -0.0604  0.0533  1.0000  -1.6503   0.0000   0.3072
  19.400   0.7767   0.24260   0.23767  -0.0611  0.0525  1.0000  -1.6486   0.0000   0.3077
  19.500   0.7799   0.24394   0.23901  -0.0618  0.0517  1.0000  -1.6497   0.0000   0.3081
  19.600   0.7832   0.24526   0.24034  -0.0624  0.0511  1.0000  -1.6535   0.0000   0.3084
  19.700   0.7866   0.24658   0.24166  -0.0630  0.0505  1.0000  -1.6602   0.0000   0.3086
  19.800   0.7901   0.24790   0.24298  -0.0635  0.0499  1.0000  -1.6699   0.0000   0.3088
  19.900   0.7937   0.24923   0.24432  -0.0639  0.0494  1.0000  -1.6832   0.0000   0.3088
  20.000   0.7976   0.25063   0.24573  -0.0642  0.0490  1.0000  -1.7006   0.0000   0.3086


