xflr5 v6.32

 Calculated polar for: NACA 0012

 1 1 Reynolds number fixed          Mach number fixed         

 xtrf =   1.000 (top)        1.000 (bottom)
 Mach =   0.000     Re =    80.000 e 6     Ncrit =   9.000

  alpha     CL        CD       CDp       Cm    Top Xtr Bot Xtr   Cpmin    Chinge    XCp    
 ------- -------- --------- --------- -------- ------- ------- -------- --------- ---------
 -15.000  -1.6741   0.01035   0.00660   0.0014  0.8502  0.0050  -12.2500   0.0000   0.2317
 -14.800  -1.6544   0.01015   0.00639   0.0017  0.8430  0.0052  -11.9612   0.0000   0.2322
 -14.700  -1.6445   0.01006   0.00629   0.0018  0.8343  0.0053  -11.8180   0.0000   0.2325
 -14.600  -1.6346   0.00996   0.00619   0.0020  0.8265  0.0054  -11.6752   0.0000   0.2328
 -14.400  -1.6147   0.00974   0.00597   0.0023  0.8218  0.0057  -11.3915   0.0000   0.2334
 -14.300  -1.6048   0.00965   0.00586   0.0024  0.8149  0.0058  -11.2509   0.0000   0.2337
 -14.200  -1.5948   0.00955   0.00576   0.0026  0.8061  0.0060  -11.1109   0.0000   0.2339
 -14.100  -1.5848   0.00945   0.00565   0.0027  0.7988  0.0061  -10.9714   0.0000   0.2342
 -14.000  -1.5748   0.00934   0.00554   0.0029  0.7954  0.0062  -10.8326   0.0000   0.2345
 -13.900  -1.5648   0.00923   0.00543   0.0030  0.7947  0.0064  -10.6945   0.0000   0.2348
 -13.800  -1.5547   0.00914   0.00533   0.0031  0.7882  0.0065  -10.5565   0.0000   0.2350
 -13.700  -1.5445   0.00906   0.00524   0.0032  0.7796  0.0066  -10.4184   0.0000   0.2353
 -13.600  -1.5341   0.00898   0.00517   0.0033  0.7716  0.0066  -10.2795   0.0000   0.2356
 -13.500  -1.5236   0.00891   0.00509   0.0034  0.7680  0.0066  -10.1410   0.0000   0.2358
 -13.300  -1.5026   0.00878   0.00495   0.0035  0.7616  0.0067  -9.8659   0.0000   0.2363
 -13.200  -1.4921   0.00872   0.00488   0.0036  0.7533  0.0067  -9.7294   0.0000   0.2365
 -13.100  -1.4815   0.00866   0.00482   0.0036  0.7450  0.0067  -9.5935   0.0000   0.2367
 -13.000  -1.4709   0.00859   0.00474   0.0037  0.7408  0.0067  -9.4581   0.0000   0.2369
 -12.900  -1.4602   0.00853   0.00468   0.0038  0.7389  0.0067  -9.3234   0.0000   0.2372
 -12.800  -1.4496   0.00847   0.00461   0.0038  0.7359  0.0067  -9.1896   0.0000   0.2374
 -12.700  -1.4390   0.00842   0.00455   0.0039  0.7281  0.0067  -9.0566   0.0000   0.2376
 -12.600  -1.4283   0.00836   0.00449   0.0039  0.7198  0.0067  -8.9242   0.0000   0.2378
 -12.500  -1.4176   0.00830   0.00443   0.0039  0.7132  0.0067  -8.7924   0.0000   0.2380
 -12.300  -1.3961   0.00818   0.00430   0.0040  0.7097  0.0067  -8.5309   0.0000   0.2385
 -12.200  -1.3853   0.00814   0.00424   0.0041  0.7032  0.0068  -8.4016   0.0000   0.2387
 -12.100  -1.3746   0.00809   0.00419   0.0041  0.6954  0.0068  -8.2729   0.0000   0.2389
 -12.000  -1.3637   0.00803   0.00413   0.0041  0.6874  0.0068  -8.1447   0.0000   0.2391
 -11.900  -1.3529   0.00798   0.00406   0.0041  0.6831  0.0068  -8.0259   0.0000   0.2393
 -11.800  -1.3421   0.00792   0.00401   0.0042  0.6811  0.0068  -7.9142   0.0000   0.2395
 -11.700  -1.3312   0.00787   0.00395   0.0042  0.6787  0.0068  -7.8031   0.0000   0.2397
 -11.600  -1.3204   0.00782   0.00390   0.0042  0.6709  0.0068  -7.6929   0.0000   0.2399
 -11.500  -1.3095   0.00778   0.00384   0.0042  0.6630  0.0068  -7.5831   0.0000   0.2401
 -11.400  -1.2986   0.00772   0.00379   0.0043  0.6560  0.0068  -7.4737   0.0000   0.2403
 -11.300  -1.2877   0.00767   0.00373   0.0043  0.6532  0.0068  -7.3649   0.0000   0.2405
 -11.200  -1.2767   0.00762   0.00368   0.0043  0.6517  0.0068  -7.2568   0.0000   0.2407
 -11.100  -1.2658   0.00757   0.00362   0.0043  0.6479  0.0068  -7.1493   0.0000   0.2408
 -11.000  -1.2549   0.00753   0.00357   0.0043  0.6400  0.0068  -7.0427   0.0000   0.2410
 -10.900  -1.2439   0.00748   0.00352   0.0043  0.6319  0.0068  -6.9365   0.0000   0.2412
 -10.800  -1.2329   0.00743   0.00348   0.0043  0.6255  0.0068  -6.8307   0.0000   0.2414
 -10.700  -1.2219   0.00738   0.00342   0.0044  0.6233  0.0068  -6.7256   0.0000   0.2416
 -10.600  -1.2109   0.00733   0.00337   0.0044  0.6223  0.0068  -6.6211   0.0000   0.2418
 -10.500  -1.1999   0.00729   0.00332   0.0044  0.6177  0.0068  -6.5173   0.0000   0.2419
 -10.400  -1.1889   0.00725   0.00327   0.0044  0.6101  0.0069  -6.4143   0.0000   0.2421
 -10.300  -1.1778   0.00721   0.00322   0.0044  0.6020  0.0069  -6.3116   0.0000   0.2423
 -10.200  -1.1668   0.00716   0.00318   0.0044  0.5957  0.0069  -6.2096   0.0000   0.2424
 -10.100  -1.1557   0.00712   0.00312   0.0044  0.5934  0.0069  -6.1082   0.0000   0.2426
  -9.900  -1.1335   0.00703   0.00303   0.0044  0.5876  0.0071  -5.9077   0.0000   0.2430
  -9.800  -1.1224   0.00700   0.00299   0.0044  0.5803  0.0073  -5.8086   0.0000   0.2431
  -9.700  -1.1113   0.00696   0.00295   0.0044  0.5726  0.0075  -5.7101   0.0000   0.2433
  -9.600  -1.1002   0.00691   0.00290   0.0043  0.5664  0.0078  -5.6121   0.0000   0.2434
  -9.500  -1.0890   0.00686   0.00285   0.0043  0.5643  0.0080  -5.5148   0.0000   0.2436
  -9.300  -1.0667   0.00678   0.00276   0.0043  0.5581  0.0086  -5.3224   0.0000   0.2439
  -9.200  -1.0556   0.00674   0.00272   0.0043  0.5510  0.0088  -5.2274   0.0000   0.2441
  -9.100  -1.0445   0.00670   0.00267   0.0043  0.5434  0.0091  -5.1330   0.0000   0.2442
  -9.000  -1.0333   0.00665   0.00263   0.0043  0.5372  0.0094  -5.0393   0.0000   0.2444
  -8.900  -1.0222   0.00660   0.00257   0.0043  0.5354  0.0098  -4.9464   0.0000   0.2446
  -8.700  -1.0000   0.00650   0.00246   0.0043  0.5293  0.0105  -4.7634   0.0000   0.2449
  -8.600  -0.9889   0.00645   0.00241   0.0043  0.5224  0.0109  -4.6734   0.0000   0.2451
  -8.500  -0.9778   0.00639   0.00236   0.0043  0.5152  0.0113  -4.5836   0.0000   0.2452
  -8.400  -0.9667   0.00634   0.00231   0.0043  0.5086  0.0117  -4.4941   0.0000   0.2454
  -8.300  -0.9554   0.00629   0.00226   0.0043  0.5066  0.0118  -4.4047   0.0000   0.2456
  -8.200  -0.9441   0.00625   0.00222   0.0043  0.5053  0.0119  -4.3158   0.0000   0.2457
  -8.100  -0.9329   0.00623   0.00218   0.0042  0.5008  0.0119  -4.2276   0.0000   0.2458
  -8.000  -0.9216   0.00620   0.00215   0.0042  0.4939  0.0120  -4.1402   0.0000   0.2460
  -7.900  -0.9102   0.00617   0.00212   0.0042  0.4868  0.0120  -4.0533   0.0000   0.2461
  -7.800  -0.8989   0.00614   0.00209   0.0042  0.4802  0.0120  -3.9670   0.0000   0.2462
  -7.700  -0.8875   0.00611   0.00205   0.0041  0.4781  0.0120  -3.8813   0.0000   0.2463
  -7.600  -0.8761   0.00607   0.00202   0.0041  0.4766  0.0120  -3.7963   0.0000   0.2465
  -7.500  -0.8648   0.00605   0.00198   0.0040  0.4727  0.0121  -3.7122   0.0000   0.2466
  -7.400  -0.8534   0.00603   0.00195   0.0040  0.4656  0.0121  -3.6289   0.0000   0.2467
  -7.300  -0.8421   0.00601   0.00193   0.0040  0.4584  0.0121  -3.5461   0.0000   0.2468
  -7.200  -0.8307   0.00598   0.00190   0.0039  0.4518  0.0121  -3.4639   0.0000   0.2469
  -7.100  -0.8192   0.00594   0.00186   0.0039  0.4498  0.0127  -3.3825   0.0000   0.2470
  -6.900  -0.7965   0.00588   0.00179   0.0038  0.4453  0.0145  -3.2219   0.0000   0.2473
  -6.800  -0.7851   0.00586   0.00176   0.0038  0.4381  0.0150  -3.1430   0.0000   0.2474
  -6.700  -0.7738   0.00583   0.00173   0.0037  0.4306  0.0156  -3.0649   0.0000   0.2475
  -6.600  -0.7624   0.00579   0.00170   0.0037  0.4236  0.0162  -2.9984   0.0000   0.2476
  -6.500  -0.7510   0.00575   0.00166   0.0037  0.4217  0.0168  -2.9329   0.0000   0.2478
  -6.300  -0.7283   0.00567   0.00158   0.0036  0.4180  0.0182  -2.8038   0.0000   0.2480
  -6.200  -0.7170   0.00565   0.00155   0.0036  0.4112  0.0185  -2.7397   0.0000   0.2481
  -6.100  -0.7055   0.00563   0.00153   0.0036  0.4037  0.0186  -2.6759   0.0000   0.2482
  -6.000  -0.6940   0.00560   0.00151   0.0035  0.3962  0.0187  -2.6125   0.0000   0.2483
  -5.900  -0.6825   0.00558   0.00147   0.0034  0.3940  0.0187  -2.5495   0.0000   0.2484
  -5.700  -0.6595   0.00554   0.00143   0.0033  0.3900  0.0188  -2.4252   0.0000   0.2486
  -5.600  -0.6480   0.00553   0.00141   0.0033  0.3838  0.0188  -2.3639   0.0000   0.2487
  -5.500  -0.6365   0.00551   0.00139   0.0032  0.3767  0.0195  -2.3032   0.0000   0.2487
  -5.400  -0.6250   0.00549   0.00137   0.0032  0.3691  0.0204  -2.2429   0.0000   0.2488
  -5.300  -0.6135   0.00546   0.00134   0.0031  0.3670  0.0213  -2.1831   0.0000   0.2489
  -5.200  -0.6019   0.00544   0.00131   0.0031  0.3657  0.0223  -2.1237   0.0000   0.2490
  -5.100  -0.5905   0.00542   0.00129   0.0030  0.3613  0.0232  -2.0654   0.0000   0.2491
  -5.000  -0.5791   0.00540   0.00126   0.0030  0.3556  0.0244  -2.0079   0.0000   0.2492
  -4.900  -0.5677   0.00535   0.00123   0.0030  0.3492  0.0263  -1.9513   0.0000   0.2493
  -4.800  -0.5562   0.00532   0.00120   0.0029  0.3423  0.0267  -1.8943   0.0000   0.2494
  -4.700  -0.5446   0.00530   0.00118   0.0029  0.3404  0.0269  -1.8377   0.0000   0.2495
  -4.600  -0.5330   0.00529   0.00116   0.0028  0.3392  0.0274  -1.7815   0.0000   0.2495
  -4.500  -0.5215   0.00528   0.00115   0.0027  0.3333  0.0286  -1.7300   0.0000   0.2496
  -4.400  -0.5100   0.00527   0.00113   0.0027  0.3270  0.0298  -1.6834   0.0000   0.2497
  -4.300  -0.4984   0.00525   0.00111   0.0026  0.3208  0.0311  -1.6371   0.0000   0.2497
  -4.200  -0.4869   0.00523   0.00109   0.0026  0.3155  0.0324  -1.5912   0.0000   0.2498
  -4.100  -0.4753   0.00520   0.00106   0.0025  0.3143  0.0338  -1.5459   0.0000   0.2499
  -4.000  -0.4638   0.00517   0.00104   0.0025  0.3124  0.0351  -1.5011   0.0000   0.2500
  -3.900  -0.4524   0.00516   0.00102   0.0024  0.3055  0.0359  -1.4565   0.0000   0.2500
  -3.800  -0.4408   0.00516   0.00101   0.0024  0.2987  0.0361  -1.4121   0.0000   0.2501
  -3.700  -0.4292   0.00514   0.00100   0.0023  0.2922  0.0363  -1.3679   0.0000   0.2501
  -3.600  -0.4175   0.00513   0.00098   0.0022  0.2898  0.0370  -1.3240   0.0000   0.2502
  -3.400  -0.3943   0.00511   0.00095   0.0021  0.2845  0.0408  -1.2377   0.0000   0.2502
  -3.300  -0.3828   0.00510   0.00093   0.0020  0.2773  0.0425  -1.1988   0.0000   0.2503
  -3.200  -0.3713   0.00508   0.00092   0.0020  0.2702  0.0448  -1.1630   0.0000   0.2504
  -3.100  -0.3598   0.00504   0.00089   0.0019  0.2658  0.0468  -1.1275   0.0000   0.2505
  -3.000  -0.3481   0.00503   0.00088   0.0019  0.2647  0.0484  -1.0919   0.0000   0.2505
  -2.900  -0.3365   0.00502   0.00086   0.0018  0.2626  0.0520  -1.0567   0.0000   0.2505
  -2.800  -0.3250   0.00501   0.00085   0.0018  0.2560  0.0543  -1.0219   0.0000   0.2506
  -2.700  -0.3135   0.00500   0.00084   0.0017  0.2488  0.0565  -0.9875   0.0000   0.2507
  -2.600  -0.3019   0.00497   0.00083   0.0017  0.2424  0.0583  -0.9533   0.0000   0.2507
  -2.500  -0.2902   0.00496   0.00081   0.0016  0.2414  0.0588  -0.9227   0.0000   0.2508
  -2.400  -0.2786   0.00495   0.00080   0.0015  0.2402  0.0591  -0.8932   0.0000   0.2507
  -2.300  -0.2670   0.00497   0.00080   0.0014  0.2337  0.0600  -0.8641   0.0000   0.2508
  -2.200  -0.2554   0.00497   0.00080   0.0014  0.2267  0.0625  -0.8351   0.0000   0.2508
  -2.100  -0.2437   0.00496   0.00079   0.0013  0.2200  0.0649  -0.8064   0.0000   0.2508
  -2.000  -0.2321   0.00494   0.00077   0.0012  0.2187  0.0673  -0.7793   0.0000   0.2508
  -1.800  -0.2090   0.00491   0.00074   0.0011  0.2125  0.0723  -0.7301   0.0000   0.2509
  -1.700  -0.1974   0.00491   0.00074   0.0011  0.2051  0.0798  -0.7058   0.0000   0.2510
  -1.600  -0.1859   0.00489   0.00073   0.0010  0.1979  0.0838  -0.6820   0.0000   0.2511
  -1.400  -0.1626   0.00487   0.00071   0.0009  0.1949  0.0866  -0.6391   0.0000   0.2511
  -1.300  -0.1510   0.00488   0.00071   0.0008  0.1901  0.0869  -0.6179   0.0000   0.2511
  -1.200  -0.1393   0.00489   0.00071   0.0008  0.1841  0.0879  -0.5981   0.0000   0.2511
  -1.100  -0.1276   0.00488   0.00071   0.0007  0.1770  0.0908  -0.5792   0.0000   0.2510
  -1.000  -0.1160   0.00487   0.00069   0.0006  0.1755  0.0957  -0.5606   0.0000   0.2510
  -0.900  -0.1046   0.00485   0.00068   0.0006  0.1718  0.1017  -0.5433   0.0000   0.2512
  -0.800  -0.0930   0.00486   0.00069   0.0005  0.1665  0.1028  -0.5266   0.0000   0.2512
  -0.700  -0.0813   0.00486   0.00069   0.0004  0.1620  0.1088  -0.5100   0.0000   0.2512
  -0.600  -0.0697   0.00485   0.00067   0.0004  0.1566  0.1134  -0.4944   0.0000   0.2511
  -0.500  -0.0580   0.00483   0.00067   0.0003  0.1554  0.1163  -0.4795   0.0000   0.2511
  -0.400  -0.0465   0.00484   0.00067   0.0003  0.1503  0.1186  -0.4647   0.0000   0.2513
  -0.300  -0.0349   0.00486   0.00068   0.0002  0.1431  0.1199  -0.4506   0.0000   0.2514
  -0.200  -0.0232   0.00485   0.00068   0.0001  0.1381  0.1279  -0.4372   0.0000   0.2513
  -0.100  -0.0117   0.00482   0.00066   0.0001  0.1373  0.1348  -0.4240   0.0000   0.2520
   0.000  -0.0000   0.00481   0.00067  -0.0000  0.1368  0.1368  -0.4113   0.0000  -0.3790
   0.100   0.0117   0.00482   0.00066  -0.0001  0.1348  0.1373  -0.4240   0.0000   0.2520
   0.200   0.0232   0.00485   0.00068  -0.0001  0.1279  0.1381  -0.4372   0.0000   0.2513
   0.300   0.0349   0.00486   0.00068  -0.0002  0.1199  0.1431  -0.4506   0.0000   0.2514
   0.400   0.0465   0.00484   0.00067  -0.0003  0.1186  0.1503  -0.4647   0.0000   0.2513
   0.600   0.0697   0.00485   0.00067  -0.0004  0.1134  0.1566  -0.4944   0.0000   0.2511
   0.700   0.0813   0.00486   0.00069  -0.0004  0.1089  0.1620  -0.5100   0.0000   0.2512
   0.800   0.0930   0.00486   0.00069  -0.0005  0.1028  0.1665  -0.5266   0.0000   0.2512
   0.900   0.1046   0.00485   0.00068  -0.0006  0.1017  0.1718  -0.5433   0.0000   0.2512
   1.000   0.1160   0.00487   0.00069  -0.0006  0.0957  0.1755  -0.5606   0.0000   0.2510
   1.100   0.1276   0.00488   0.00071  -0.0007  0.0908  0.1769  -0.5792   0.0000   0.2510
   1.200   0.1393   0.00489   0.00071  -0.0008  0.0879  0.1840  -0.5981   0.0000   0.2511
   1.300   0.1510   0.00488   0.00071  -0.0008  0.0869  0.1901  -0.6179   0.0000   0.2511
   1.400   0.1626   0.00487   0.00071  -0.0009  0.0866  0.1949  -0.6391   0.0000   0.2511
   1.600   0.1859   0.00489   0.00073  -0.0010  0.0838  0.1979  -0.6820   0.0000   0.2511
   1.700   0.1975   0.00491   0.00074  -0.0011  0.0798  0.2051  -0.7058   0.0000   0.2510
   1.800   0.2090   0.00491   0.00074  -0.0011  0.0723  0.2125  -0.7301   0.0000   0.2509
   2.000   0.2321   0.00494   0.00077  -0.0012  0.0673  0.2187  -0.7793   0.0000   0.2508
   2.100   0.2437   0.00496   0.00079  -0.0013  0.0649  0.2201  -0.8064   0.0000   0.2508
   2.200   0.2554   0.00497   0.00080  -0.0014  0.0625  0.2266  -0.8351   0.0000   0.2508
   2.300   0.2670   0.00497   0.00080  -0.0014  0.0600  0.2337  -0.8641   0.0000   0.2508
   2.400   0.2786   0.00495   0.00080  -0.0015  0.0591  0.2402  -0.8932   0.0000   0.2507
   2.500   0.2902   0.00496   0.00081  -0.0016  0.0588  0.2414  -0.9227   0.0000   0.2508
   2.700   0.3135   0.00500   0.00084  -0.0017  0.0565  0.2488  -0.9875   0.0000   0.2507
   2.800   0.3250   0.00501   0.00085  -0.0018  0.0543  0.2560  -1.0219   0.0000   0.2506
   2.900   0.3365   0.00501   0.00086  -0.0018  0.0520  0.2626  -1.0567   0.0000   0.2505
   3.000   0.3481   0.00503   0.00088  -0.0019  0.0484  0.2647  -1.0919   0.0000   0.2505
   3.100   0.3598   0.00504   0.00089  -0.0019  0.0468  0.2658  -1.1275   0.0000   0.2505
   3.200   0.3713   0.00508   0.00092  -0.0020  0.0448  0.2702  -1.1630   0.0000   0.2504
   3.300   0.3828   0.00510   0.00093  -0.0020  0.0425  0.2773  -1.1988   0.0000   0.2503
   3.400   0.3943   0.00511   0.00095  -0.0021  0.0408  0.2845  -1.2377   0.0000   0.2503
   3.600   0.4175   0.00513   0.00098  -0.0022  0.0370  0.2898  -1.3241   0.0000   0.2502
   3.700   0.4292   0.00514   0.00100  -0.0023  0.0363  0.2922  -1.3679   0.0000   0.2501
   3.800   0.4408   0.00516   0.00101  -0.0024  0.0361  0.2986  -1.4121   0.0000   0.2501
   3.900   0.4524   0.00516   0.00102  -0.0024  0.0359  0.3055  -1.4566   0.0000   0.2500
   4.000   0.4639   0.00517   0.00104  -0.0025  0.0351  0.3124  -1.5011   0.0000   0.2500
   4.100   0.4754   0.00520   0.00106  -0.0025  0.0338  0.3143  -1.5459   0.0000   0.2499
   4.200   0.4869   0.00523   0.00109  -0.0026  0.0324  0.3155  -1.5913   0.0000   0.2498
   4.300   0.4984   0.00525   0.00111  -0.0026  0.0311  0.3208  -1.6371   0.0000   0.2497
   4.400   0.5100   0.00527   0.00113  -0.0027  0.0298  0.3270  -1.6834   0.0000   0.2497
   4.500   0.5215   0.00528   0.00115  -0.0027  0.0286  0.3333  -1.7300   0.0000   0.2496
   4.700   0.5446   0.00530   0.00118  -0.0029  0.0269  0.3404  -1.8377   0.0000   0.2495
   4.800   0.5562   0.00532   0.00120  -0.0029  0.0267  0.3423  -1.8944   0.0000   0.2494
   4.900   0.5678   0.00535   0.00123  -0.0030  0.0263  0.3492  -1.9513   0.0000   0.2493
   5.000   0.5791   0.00540   0.00126  -0.0030  0.0244  0.3556  -2.0079   0.0000   0.2492
   5.100   0.5905   0.00542   0.00129  -0.0030  0.0232  0.3613  -2.0655   0.0000   0.2491
   5.200   0.6020   0.00544   0.00131  -0.0031  0.0223  0.3657  -2.1238   0.0000   0.2490
   5.300   0.6135   0.00546   0.00134  -0.0031  0.0213  0.3670  -2.1831   0.0000   0.2489
   5.400   0.6250   0.00549   0.00137  -0.0032  0.0204  0.3692  -2.2430   0.0000   0.2488
   5.500   0.6365   0.00551   0.00139  -0.0032  0.0195  0.3766  -2.3033   0.0000   0.2488
   5.600   0.6480   0.00553   0.00141  -0.0033  0.0188  0.3838  -2.3640   0.0000   0.2487
   5.700   0.6595   0.00554   0.00143  -0.0033  0.0188  0.3900  -2.4252   0.0000   0.2486
   5.900   0.6825   0.00558   0.00147  -0.0035  0.0187  0.3940  -2.5496   0.0000   0.2484
   6.000   0.6941   0.00560   0.00151  -0.0035  0.0187  0.3962  -2.6126   0.0000   0.2483
   6.100   0.7056   0.00563   0.00153  -0.0036  0.0186  0.4037  -2.6760   0.0000   0.2482
   6.200   0.7170   0.00565   0.00155  -0.0036  0.0185  0.4112  -2.7398   0.0000   0.2481
   6.300   0.7284   0.00567   0.00158  -0.0036  0.0182  0.4180  -2.8039   0.0000   0.2480
   6.500   0.7511   0.00575   0.00166  -0.0037  0.0168  0.4217  -2.9330   0.0000   0.2478
   6.600   0.7624   0.00579   0.00170  -0.0037  0.0162  0.4236  -2.9985   0.0000   0.2476
   6.700   0.7738   0.00583   0.00173  -0.0038  0.0156  0.4305  -3.0650   0.0000   0.2475
   6.800   0.7852   0.00586   0.00176  -0.0038  0.0150  0.4381  -3.1432   0.0000   0.2474
   6.900   0.7965   0.00588   0.00179  -0.0038  0.0145  0.4453  -3.2220   0.0000   0.2473
   7.100   0.8193   0.00594   0.00186  -0.0039  0.0127  0.4498  -3.3827   0.0000   0.2471
   7.200   0.8307   0.00598   0.00190  -0.0039  0.0121  0.4518  -3.4641   0.0000   0.2469
   7.400   0.8535   0.00603   0.00195  -0.0040  0.0121  0.4656  -3.6291   0.0000   0.2467
   7.500   0.8648   0.00605   0.00198  -0.0041  0.0121  0.4727  -3.7124   0.0000   0.2466
   7.600   0.8762   0.00607   0.00202  -0.0041  0.0120  0.4766  -3.7965   0.0000   0.2465
   7.700   0.8876   0.00611   0.00205  -0.0041  0.0120  0.4781  -3.8815   0.0000   0.2463
   7.800   0.8989   0.00614   0.00209  -0.0042  0.0120  0.4803  -3.9671   0.0000   0.2462
   7.900   0.9103   0.00617   0.00212  -0.0042  0.0120  0.4868  -4.0535   0.0000   0.2461
   8.000   0.9216   0.00620   0.00215  -0.0042  0.0120  0.4939  -4.1404   0.0000   0.2460
   8.100   0.9329   0.00623   0.00218  -0.0043  0.0119  0.5009  -4.2278   0.0000   0.2458
   8.200   0.9442   0.00625   0.00222  -0.0043  0.0119  0.5053  -4.3160   0.0000   0.2457
   8.300   0.9555   0.00629   0.00226  -0.0043  0.0118  0.5066  -4.4050   0.0000   0.2456
   8.400   0.9667   0.00634   0.00231  -0.0043  0.0117  0.5086  -4.4943   0.0000   0.2454
   8.500   0.9779   0.00639   0.00236  -0.0043  0.0113  0.5152  -4.5838   0.0000   0.2453
   8.600   0.9890   0.00645   0.00241  -0.0043  0.0109  0.5224  -4.6736   0.0000   0.2451
   8.700   1.0000   0.00650   0.00246  -0.0043  0.0105  0.5293  -4.7636   0.0000   0.2449
   8.900   1.0223   0.00660   0.00257  -0.0043  0.0098  0.5354  -4.9467   0.0000   0.2446
   9.000   1.0334   0.00665   0.00263  -0.0043  0.0094  0.5372  -5.0396   0.0000   0.2444
   9.100   1.0446   0.00670   0.00267  -0.0043  0.0091  0.5434  -5.1333   0.0000   0.2443
   9.200   1.0557   0.00674   0.00272  -0.0043  0.0088  0.5510  -5.2277   0.0000   0.2441
   9.300   1.0668   0.00678   0.00276  -0.0043  0.0086  0.5581  -5.3227   0.0000   0.2439
   9.400   1.0779   0.00682   0.00281  -0.0043  0.0083  0.5634  -5.4185   0.0000   0.2438
   9.500   1.0891   0.00686   0.00285  -0.0044  0.0080  0.5643  -5.5151   0.0000   0.2436
   9.600   1.1002   0.00691   0.00290  -0.0044  0.0078  0.5663  -5.6125   0.0000   0.2435
   9.700   1.1114   0.00696   0.00295  -0.0044  0.0075  0.5726  -5.7104   0.0000   0.2433
   9.800   1.1225   0.00700   0.00299  -0.0044  0.0073  0.5803  -5.8090   0.0000   0.2431
   9.900   1.1336   0.00703   0.00303  -0.0044  0.0071  0.5876  -5.9081   0.0000   0.2430
  10.100   1.1558   0.00712   0.00312  -0.0044  0.0069  0.5935  -6.1087   0.0000   0.2426
  10.200   1.1669   0.00716   0.00318  -0.0044  0.0069  0.5957  -6.2100   0.0000   0.2425
  10.300   1.1779   0.00721   0.00322  -0.0044  0.0069  0.6020  -6.3120   0.0000   0.2423
  10.400   1.1890   0.00725   0.00327  -0.0044  0.0069  0.6101  -6.4147   0.0000   0.2421
  10.500   1.2000   0.00729   0.00332  -0.0044  0.0068  0.6178  -6.5178   0.0000   0.2419
  10.600   1.2110   0.00733   0.00337  -0.0044  0.0068  0.6223  -6.6216   0.0000   0.2418
  10.700   1.2220   0.00738   0.00342  -0.0044  0.0068  0.6233  -6.7261   0.0000   0.2416
  10.800   1.2330   0.00743   0.00348  -0.0044  0.0068  0.6255  -6.8313   0.0000   0.2414
  10.900   1.2440   0.00748   0.00352  -0.0044  0.0068  0.6319  -6.9370   0.0000   0.2412
  11.000   1.2550   0.00753   0.00357  -0.0044  0.0068  0.6400  -7.0432   0.0000   0.2410
  11.100   1.2659   0.00757   0.00362  -0.0043  0.0068  0.6480  -7.1499   0.0000   0.2409
  11.200   1.2769   0.00762   0.00368  -0.0043  0.0068  0.6517  -7.2574   0.0000   0.2407
  11.300   1.2878   0.00767   0.00373  -0.0043  0.0068  0.6532  -7.3656   0.0000   0.2405
  11.400   1.2987   0.00772   0.00379  -0.0043  0.0068  0.6561  -7.4744   0.0000   0.2403
  11.500   1.3097   0.00778   0.00384  -0.0043  0.0068  0.6630  -7.5837   0.0000   0.2401
  11.600   1.3205   0.00782   0.00390  -0.0043  0.0068  0.6709  -7.6935   0.0000   0.2399
  11.700   1.3314   0.00787   0.00395  -0.0042  0.0068  0.6787  -7.8038   0.0000   0.2397
  11.800   1.3422   0.00792   0.00401  -0.0042  0.0068  0.6811  -7.9149   0.0000   0.2395
  11.900   1.3531   0.00798   0.00406  -0.0042  0.0068  0.6831  -8.0266   0.0000   0.2393
  12.000   1.3639   0.00803   0.00413  -0.0041  0.0068  0.6875  -8.1456   0.0000   0.2391
  12.100   1.3747   0.00809   0.00419  -0.0041  0.0068  0.6954  -8.2738   0.0000   0.2389
  12.200   1.3855   0.00814   0.00424  -0.0041  0.0068  0.7033  -8.4025   0.0000   0.2387
  12.300   1.3962   0.00818   0.00430  -0.0040  0.0067  0.7097  -8.5319   0.0000   0.2385
  12.500   1.4177   0.00830   0.00443  -0.0040  0.0067  0.7132  -8.7934   0.0000   0.2381
  12.600   1.4284   0.00836   0.00449  -0.0039  0.0067  0.7198  -8.9252   0.0000   0.2378
  12.700   1.4391   0.00842   0.00455  -0.0039  0.0067  0.7281  -9.0577   0.0000   0.2376
  12.800   1.4498   0.00847   0.00461  -0.0038  0.0067  0.7360  -9.1906   0.0000   0.2374
  12.900   1.4604   0.00853   0.00468  -0.0038  0.0067  0.7389  -9.3246   0.0000   0.2372
  13.000   1.4711   0.00859   0.00474  -0.0037  0.0067  0.7408  -9.4593   0.0000   0.2370
  13.100   1.4817   0.00866   0.00482  -0.0037  0.0067  0.7451  -9.5947   0.0000   0.2367
  13.200   1.4923   0.00872   0.00488  -0.0036  0.0067  0.7533  -9.7306   0.0000   0.2365
  13.300   1.5028   0.00878   0.00495  -0.0036  0.0067  0.7617  -9.8671   0.0000   0.2363
  13.500   1.5238   0.00891   0.00509  -0.0034  0.0066  0.7681  -10.1423   0.0000   0.2358
  13.600   1.5343   0.00898   0.00517  -0.0034  0.0066  0.7716  -10.2809   0.0000   0.2356
  13.700   1.5447   0.00906   0.00524  -0.0033  0.0066  0.7796  -10.4198   0.0000   0.2353
  13.800   1.5549   0.00914   0.00533  -0.0032  0.0065  0.7883  -10.5579   0.0000   0.2351
  13.900   1.5650   0.00923   0.00543  -0.0030  0.0064  0.7947  -10.6960   0.0000   0.2348
  14.000   1.5750   0.00934   0.00554  -0.0029  0.0062  0.7954  -10.8341   0.0000   0.2345
  14.100   1.5851   0.00945   0.00565  -0.0028  0.0061  0.7988  -10.9729   0.0000   0.2342
  14.200   1.5951   0.00955   0.00576  -0.0026  0.0060  0.8061  -11.1125   0.0000   0.2340
  14.300   1.6050   0.00965   0.00586  -0.0025  0.0058  0.8150  -11.2526   0.0000   0.2337
  14.400   1.6150   0.00974   0.00597  -0.0023  0.0057  0.8219  -11.3932   0.0000   0.2334
  14.500   1.6249   0.00985   0.00607  -0.0022  0.0056  0.8226  -11.5349   0.0000   0.2331
  14.600   1.6349   0.00996   0.00619  -0.0021  0.0054  0.8266  -11.6771   0.0000   0.2328
  14.700   1.6448   0.01006   0.00629  -0.0019  0.0053  0.8343  -11.8199   0.0000   0.2326
  14.800   1.6546   0.01015   0.00639  -0.0018  0.0052  0.8431  -11.9631   0.0000   0.2323
  15.000   1.6744   0.01035   0.00660  -0.0014  0.0050  0.8503  -12.2520   0.0000   0.2317
  15.100   1.6842   0.01045   0.00671  -0.0013  0.0049  0.8553  -12.3977   0.0000   0.2314
  15.200   1.6941   0.01055   0.00682  -0.0011  0.0048  0.8638  -12.5438   0.0000   0.2311
  15.300   1.7038   0.01064   0.00692  -0.0010  0.0047  0.8728  -12.6903   0.0000   0.2308
  15.400   1.7136   0.01074   0.00702  -0.0008  0.0046  0.8741  -12.8380   0.0000   0.2305
  15.500   1.7234   0.01084   0.00713  -0.0007  0.0045  0.8780  -12.9862   0.0000   0.2302
  15.600   1.7332   0.01093   0.00723  -0.0005  0.0044  0.8859  -13.1351   0.0000   0.2299
  15.700   1.7428   0.01102   0.00733  -0.0003  0.0043  0.8950  -13.2841   0.0000   0.2296
  15.800   1.7525   0.01112   0.00743  -0.0001  0.0042  0.8981  -13.4338   0.0000   0.2293
  15.900   1.7622   0.01122   0.00754   0.0000  0.0041  0.9017  -13.5842   0.0000   0.2290
  16.000   1.7718   0.01131   0.00765   0.0002  0.0041  0.9097  -13.7349   0.0000   0.2287
  16.100   1.7813   0.01140   0.00775   0.0004  0.0040  0.9190  -13.8857   0.0000   0.2284
  16.200   1.7909   0.01150   0.00786   0.0006  0.0039  0.9210  -14.0374   0.0000   0.2281
  16.300   1.8003   0.01161   0.00797   0.0008  0.0038  0.9257  -14.1894   0.0000   0.2278
  16.400   1.8098   0.01170   0.00807   0.0010  0.0037  0.9348  -14.3416   0.0000   0.2275
  16.500   1.8191   0.01180   0.00818   0.0012  0.0037  0.9415  -14.4936   0.0000   0.2272
  16.600   1.8284   0.01190   0.00830   0.0015  0.0036  0.9448  -14.6465   0.0000   0.2268
  16.700   1.8376   0.01201   0.00840   0.0017  0.0035  0.9524  -14.7995   0.0000   0.2265
  17.200   1.8820   0.01252   0.00897   0.0032  0.0031  0.9833  -15.5609   0.0000   0.2247
  17.300   1.8903   0.01263   0.00908   0.0037  0.0031  0.9898  -15.7106   0.0000   0.2242
  17.400   1.8993   0.01274   0.00920   0.0039  0.0031  0.9934  -15.8666   0.0000   0.2239
  17.500   1.9094   0.01286   0.00932   0.0039  0.0031  0.9976  -16.0316   0.0000   0.2237
  17.600   1.9185   0.01299   0.00944   0.0041  0.0031  1.0000  -16.1894   0.0000   0.2234
  17.700   1.9273   0.01311   0.00957   0.0044  0.0031  1.0000  -16.3459   0.0000   0.2230
  17.800   1.9360   0.01323   0.00969   0.0047  0.0031  1.0000  -16.5024   0.0000   0.2226
  17.900   1.9447   0.01336   0.00982   0.0050  0.0031  1.0000  -16.6590   0.0000   0.2223
  18.000   1.9533   0.01349   0.00995   0.0053  0.0031  1.0000  -16.8156   0.0000   0.2219
  18.100   1.9618   0.01362   0.01008   0.0056  0.0031  1.0000  -16.9723   0.0000   0.2216
  18.200   1.9702   0.01375   0.01021   0.0060  0.0031  1.0000  -17.1289   0.0000   0.2212
  18.300   1.9786   0.01388   0.01034   0.0063  0.0031  1.0000  -17.2854   0.0000   0.2208
  18.400   1.9868   0.01402   0.01048   0.0067  0.0031  1.0000  -17.4418   0.0000   0.2204
  18.500   1.9950   0.01416   0.01061   0.0070  0.0031  1.0000  -17.5981   0.0000   0.2200
  18.600   2.0031   0.01429   0.01075   0.0074  0.0031  1.0000  -17.7542   0.0000   0.2196
  18.700   2.0111   0.01443   0.01089   0.0078  0.0031  1.0000  -17.9100   0.0000   0.2192
  18.800   2.0190   0.01458   0.01103   0.0082  0.0030  1.0000  -18.0655   0.0000   0.2188
  18.900   2.0267   0.01472   0.01118   0.0086  0.0030  1.0000  -18.2206   0.0000   0.2184
  19.000   2.0343   0.01487   0.01133   0.0090  0.0030  1.0000  -18.3749   0.0000   0.2180
  19.100   2.0415   0.01501   0.01148   0.0096  0.0030  1.0000  -18.5263   0.0000   0.2175
  19.200   2.0484   0.01516   0.01163   0.0101  0.0030  1.0000  -18.6752   0.0000   0.2170
  19.300   2.0549   0.01531   0.01178   0.0108  0.0030  1.0000  -18.8219   0.0000   0.2165
  19.400   2.0602   0.01546   0.01194   0.0116  0.0030  1.0000  -18.9585   0.0000   0.2159
  19.500   2.0646   0.01562   0.01210   0.0127  0.0030  1.0000  -19.0878   0.0000   0.2152
  19.600   2.0692   0.01579   0.01227   0.0136  0.0030  1.0000  -19.2189   0.0000   0.2145
  19.700   2.0744   0.01596   0.01245   0.0144  0.0030  1.0000  -19.3562   0.0000   0.2139
  19.800   2.0792   0.01615   0.01264   0.0153  0.0030  1.0000  -19.4893   0.0000   0.2133
  19.900   2.0838   0.01634   0.01283   0.0162  0.0030  1.0000  -19.6214   0.0000   0.2126
  20.000   2.0890   0.01653   0.01303   0.0169  0.0030  1.0000  -19.7596   0.0000   0.2121


