xflr5 v6.32

 Calculated polar for: NACA 0012

 1 1 Reynolds number fixed          Mach number fixed         

 xtrf =   1.000 (top)        1.000 (bottom)
 Mach =   0.000     Re =     0.500 e 6     Ncrit =   9.000

  alpha     CL        CD       CDp       Cm    Top Xtr Bot Xtr   Cpmin    Chinge    XCp    
 ------- -------- --------- --------- -------- ------- ------- -------- --------- ---------
 -15.000  -1.1511   0.05907   0.05505  -0.0286  1.0000  0.0184  -7.6111   0.0000   0.2057
 -14.900  -1.1554   0.05710   0.05301  -0.0296  1.0000  0.0184  -7.6123   0.0000   0.2052
 -14.800  -1.1592   0.05525   0.05110  -0.0305  1.0000  0.0184  -7.6080   0.0000   0.2047
 -14.700  -1.1621   0.05355   0.04933  -0.0312  1.0000  0.0185  -7.5951   0.0000   0.2043
 -14.600  -1.1644   0.05194   0.04766  -0.0320  1.0000  0.0185  -7.5768   0.0000   0.2040
 -14.500  -1.1660   0.05047   0.04614  -0.0326  1.0000  0.0186  -7.5514   0.0000   0.2037
 -14.400  -1.1672   0.04908   0.04467  -0.0331  1.0000  0.0186  -7.5216   0.0000   0.2035
 -14.300  -1.1677   0.04782   0.04336  -0.0336  1.0000  0.0187  -7.4856   0.0000   0.2034
 -14.200  -1.1676   0.04668   0.04217  -0.0339  1.0000  0.0187  -7.4439   0.0000   0.2033
 -14.100  -1.1671   0.04562   0.04106  -0.0342  1.0000  0.0188  -7.3985   0.0000   0.2032
 -14.000  -1.1660   0.04466   0.04006  -0.0345  1.0000  0.0188  -7.3479   0.0000   0.2032
 -13.800  -1.1850   0.04029   0.03544  -0.0345  1.0000  0.0192  -7.4325   0.0000   0.2040
 -13.700  -1.1946   0.03819   0.03321  -0.0341  1.0000  0.0195  -7.4746   0.0000   0.2048
 -13.600  -1.2011   0.03652   0.03145  -0.0337  1.0000  0.0198  -7.4881   0.0000   0.2055
 -13.500  -1.2048   0.03520   0.03006  -0.0332  1.0000  0.0201  -7.4770   0.0000   0.2062
 -13.400  -1.2064   0.03414   0.02894  -0.0327  1.0000  0.0204  -7.4466   0.0000   0.2068
 -13.300  -1.2064   0.03327   0.02803  -0.0322  1.0000  0.0206  -7.4021   0.0000   0.2074
 -13.200  -1.2052   0.03254   0.02727  -0.0317  1.0000  0.0209  -7.3477   0.0000   0.2080
 -13.100  -1.2033   0.03191   0.02661  -0.0312  1.0000  0.0211  -7.2869   0.0000   0.2085
 -13.000  -1.2008   0.03135   0.02602  -0.0306  1.0000  0.0214  -7.2215   0.0000   0.2091
 -12.900  -1.1979   0.03083   0.02547  -0.0301  1.0000  0.0216  -7.1536   0.0000   0.2097
 -12.800  -1.1948   0.03034   0.02495  -0.0295  1.0000  0.0219  -7.0842   0.0000   0.2103
 -12.700  -1.1915   0.02987   0.02445  -0.0289  1.0000  0.0221  -7.0149   0.0000   0.2109
 -12.600  -1.1882   0.02940   0.02396  -0.0282  1.0000  0.0223  -6.9460   0.0000   0.2116
 -12.500  -1.1848   0.02895   0.02347  -0.0275  1.0000  0.0226  -6.8768   0.0000   0.2122
 -12.400  -1.1812   0.02851   0.02300  -0.0268  1.0000  0.0228  -6.8071   0.0000   0.2130
 -12.300  -1.1774   0.02809   0.02254  -0.0260  1.0000  0.0231  -6.7369   0.0000   0.2137
 -12.200  -1.1736   0.02768   0.02209  -0.0252  1.0000  0.0233  -6.6666   0.0000   0.2144
 -12.100  -1.1696   0.02728   0.02166  -0.0244  1.0000  0.0236  -6.5958   0.0000   0.2152
 -12.000  -1.1656   0.02689   0.02123  -0.0236  1.0000  0.0239  -6.5247   0.0000   0.2160
 -11.900  -1.1613   0.02651   0.02081  -0.0228  1.0000  0.0241  -6.4607   0.0000   0.2168
 -11.800  -1.1568   0.02613   0.02039  -0.0220  1.0000  0.0244  -6.4018   0.0000   0.2176
 -11.700  -1.1517   0.02576   0.01998  -0.0212  1.0000  0.0246  -6.3407   0.0000   0.2182
 -11.600  -1.1460   0.02539   0.01957  -0.0206  1.0000  0.0249  -6.2773   0.0000   0.2189
 -11.500  -1.1400   0.02503   0.01917  -0.0200  1.0000  0.0251  -6.2127   0.0000   0.2194
 -11.400  -1.1339   0.02467   0.01877  -0.0194  1.0000  0.0254  -6.1470   0.0000   0.2200
 -11.300  -1.1275   0.02433   0.01839  -0.0188  1.0000  0.0256  -6.0801   0.0000   0.2206
 -11.200  -1.1209   0.02401   0.01803  -0.0183  1.0000  0.0258  -6.0117   0.0000   0.2211
 -11.100  -1.1140   0.02369   0.01766  -0.0178  1.0000  0.0261  -5.9418   0.0000   0.2216
 -11.000  -1.1070   0.02339   0.01732  -0.0172  1.0000  0.0263  -5.8715   0.0000   0.2221
 -10.900  -1.0998   0.02311   0.01701  -0.0168  1.0000  0.0264  -5.8001   0.0000   0.2226
 -10.800  -1.0923   0.02284   0.01671  -0.0163  1.0000  0.0266  -5.7276   0.0000   0.2230
 -10.700  -1.0847   0.02259   0.01643  -0.0158  1.0000  0.0267  -5.6539   0.0000   0.2235
 -10.600  -1.0768   0.02236   0.01617  -0.0154  1.0000  0.0269  -5.5793   0.0000   0.2239
 -10.500  -1.0722   0.02173   0.01548  -0.0146  1.0000  0.0272  -5.5334   0.0000   0.2247
 -10.400  -1.0700   0.02084   0.01452  -0.0134  1.0000  0.0280  -5.5074   0.0000   0.2259
 -10.300  -1.0656   0.02023   0.01389  -0.0125  1.0000  0.0287  -5.4608   0.0000   0.2269
 -10.200  -1.0596   0.01980   0.01343  -0.0118  1.0000  0.0293  -5.4011   0.0000   0.2276
 -10.100  -1.0526   0.01946   0.01308  -0.0112  1.0000  0.0299  -5.3336   0.0000   0.2282
 -10.000  -1.0451   0.01918   0.01279  -0.0108  1.0000  0.0305  -5.2619   0.0000   0.2287
  -9.900  -1.0371   0.01894   0.01254  -0.0103  1.0000  0.0311  -5.1878   0.0000   0.2292
  -9.800  -1.0290   0.01872   0.01230  -0.0099  1.0000  0.0317  -5.1133   0.0000   0.2296
  -9.700  -1.0208   0.01850   0.01206  -0.0094  1.0000  0.0323  -5.0392   0.0000   0.2301
  -9.600  -1.0125   0.01828   0.01183  -0.0090  1.0000  0.0329  -4.9656   0.0000   0.2306
  -9.500  -1.0043   0.01807   0.01160  -0.0086  1.0000  0.0335  -4.8923   0.0000   0.2311
  -9.400  -0.9959   0.01787   0.01138  -0.0082  1.0000  0.0342  -4.8191   0.0000   0.2315
  -9.300  -0.9875   0.01767   0.01116  -0.0077  1.0000  0.0348  -4.7458   0.0000   0.2320
  -9.200  -0.9789   0.01750   0.01096  -0.0073  1.0000  0.0353  -4.6720   0.0000   0.2325
  -9.100  -0.9701   0.01734   0.01078  -0.0069  1.0000  0.0357  -4.5974   0.0000   0.2329
  -9.000  -0.9610   0.01723   0.01062  -0.0066  1.0000  0.0361  -4.5214   0.0000   0.2333
  -8.900  -0.9526   0.01705   0.01043  -0.0061  1.0000  0.0366  -4.4485   0.0000   0.2339
  -8.800  -0.9483   0.01646   0.00981  -0.0051  1.0000  0.0381  -4.4044   0.0000   0.2351
  -8.700  -0.9415   0.01613   0.00948  -0.0044  1.0000  0.0395  -4.3421   0.0000   0.2359
  -8.600  -0.9337   0.01591   0.00926  -0.0038  1.0000  0.0406  -4.2722   0.0000   0.2366
  -8.500  -0.9255   0.01573   0.00909  -0.0033  1.0000  0.0417  -4.2004   0.0000   0.2372
  -8.400  -0.9171   0.01557   0.00893  -0.0029  1.0000  0.0427  -4.1283   0.0000   0.2378
  -8.300  -0.9087   0.01542   0.00876  -0.0024  1.0000  0.0438  -4.0572   0.0000   0.2384
  -8.200  -0.9004   0.01526   0.00859  -0.0019  1.0000  0.0448  -3.9871   0.0000   0.2390
  -8.100  -0.8919   0.01511   0.00843  -0.0014  1.0000  0.0457  -3.9172   0.0000   0.2397
  -8.000  -0.8833   0.01499   0.00828  -0.0009  1.0000  0.0465  -3.8466   0.0000   0.2403
  -7.900  -0.8744   0.01489   0.00816  -0.0005  1.0000  0.0470  -3.7751   0.0000   0.2409
  -7.800  -0.8682   0.01452   0.00778   0.0004  1.0000  0.0489  -3.7207   0.0000   0.2419
  -7.700  -0.8612   0.01424   0.00751   0.0011  1.0000  0.0510  -3.6601   0.0000   0.2429
  -7.600  -0.8533   0.01405   0.00733   0.0017  1.0000  0.0527  -3.5939   0.0000   0.2437
  -7.500  -0.8451   0.01389   0.00718   0.0022  1.0000  0.0543  -3.5266   0.0000   0.2444
  -7.400  -0.8367   0.01375   0.00704   0.0027  1.0000  0.0559  -3.4589   0.0000   0.2452
  -7.300  -0.8283   0.01363   0.00690   0.0032  1.0000  0.0574  -3.3912   0.0000   0.2459
  -7.200  -0.8196   0.01352   0.00678   0.0037  1.0000  0.0586  -3.3230   0.0000   0.2466
  -7.100  -0.8117   0.01335   0.00659   0.0043  1.0000  0.0605  -3.2592   0.0000   0.2475
  -7.000  -0.8044   0.01310   0.00634   0.0050  1.0000  0.0637  -3.1968   0.0000   0.2485
  -6.900  -0.7964   0.01293   0.00620   0.0055  1.0000  0.0663  -3.1327   0.0000   0.2493
  -6.800  -0.7881   0.01279   0.00607   0.0060  1.0000  0.0687  -3.0679   0.0000   0.2502
  -6.700  -0.7796   0.01269   0.00596   0.0065  1.0000  0.0710  -3.0120   0.0000   0.2510
  -6.600  -0.7710   0.01259   0.00585   0.0070  1.0000  0.0731  -2.9572   0.0000   0.2518
  -6.500  -0.7634   0.01236   0.00567   0.0076  1.0000  0.0778  -2.9071   0.0000   0.2528
  -6.400  -0.7553   0.01221   0.00555   0.0082  1.0000  0.0816  -2.8540   0.0000   0.2537
  -6.300  -0.7468   0.01210   0.00544   0.0087  1.0000  0.0851  -2.8000   0.0000   0.2546
  -6.200  -0.7384   0.01198   0.00533   0.0092  1.0000  0.0888  -2.7470   0.0000   0.2555
  -6.100  -0.7304   0.01180   0.00519   0.0097  1.0000  0.0943  -2.6957   0.0000   0.2564
  -6.000  -0.7221   0.01167   0.00509   0.0102  1.0000  0.0992  -2.6431   0.0000   0.2574
  -5.900  -0.7134   0.01158   0.00499   0.0106  1.0000  0.1031  -2.5899   0.0000   0.2582
  -5.800  -0.7053   0.01140   0.00487   0.0112  1.0000  0.1099  -2.5391   0.0000   0.2592
  -5.700  -0.6969   0.01128   0.00478   0.0116  1.0000  0.1159  -2.4871   0.0000   0.2602
  -5.600  -0.6883   0.01117   0.00468   0.0121  1.0000  0.1216  -2.4350   0.0000   0.2611
  -5.500  -0.6799   0.01102   0.00459   0.0125  1.0000  0.1292  -2.3840   0.0000   0.2621
  -5.400  -0.6713   0.01092   0.00451   0.0129  1.0000  0.1360  -2.3321   0.0000   0.2630
  -5.300  -0.6627   0.01078   0.00442   0.0134  1.0000  0.1439  -2.2811   0.0000   0.2640
  -5.200  -0.6541   0.01066   0.00434   0.0138  1.0000  0.1524  -2.2298   0.0000   0.2650
  -5.100  -0.6410   0.01051   0.00425   0.0132  0.9993  0.1630  -2.1670   0.0000   0.2646
  -5.000  -0.6264   0.01037   0.00413   0.0124  0.9982  0.1751  -2.0997   0.0000   0.2638
  -4.900  -0.6118   0.01020   0.00404   0.0115  0.9971  0.1887  -2.0350   0.0000   0.2629
  -4.800  -0.5968   0.01006   0.00396   0.0106  0.9959  0.2013  -1.9699   0.0000   0.2619
  -4.700  -0.5820   0.00992   0.00388   0.0097  0.9949  0.2152  -1.9056   0.0000   0.2609
  -4.600  -0.5670   0.00977   0.00380   0.0088  0.9939  0.2281  -1.8418   0.0000   0.2598
  -4.500  -0.5516   0.00966   0.00374   0.0078  0.9930  0.2412  -1.7816   0.0000   0.2585
  -4.400  -0.5377   0.00950   0.00365   0.0071  0.9915  0.2551  -1.7305   0.0000   0.2576
  -4.300  -0.5236   0.00938   0.00358   0.0064  0.9898  0.2687  -1.6793   0.0000   0.2567
  -4.200  -0.5095   0.00923   0.00351   0.0057  0.9881  0.2844  -1.6286   0.0000   0.2557
  -4.100  -0.4950   0.00910   0.00345   0.0049  0.9866  0.2989  -1.5775   0.0000   0.2544
  -4.000  -0.4800   0.00898   0.00338   0.0040  0.9851  0.3135  -1.5259   0.0000   0.2530
  -3.900  -0.4650   0.00885   0.00332   0.0031  0.9838  0.3278  -1.4747   0.0000   0.2513
  -3.800  -0.4494   0.00876   0.00326   0.0022  0.9826  0.3412  -1.4229   0.0000   0.2495
  -3.700  -0.4341   0.00861   0.00320   0.0012  0.9815  0.3572  -1.3721   0.0000   0.2474
  -3.600  -0.4183   0.00851   0.00315   0.0001  0.9806  0.3717  -1.3204   0.0000   0.2451
  -3.500  -0.4035   0.00838   0.00307  -0.0007  0.9792  0.3869  -1.2704   0.0000   0.2431
  -3.400  -0.3910   0.00828   0.00301  -0.0009  0.9764  0.3989  -1.2294   0.0000   0.2424
  -3.300  -0.3773   0.00816   0.00296  -0.0015  0.9741  0.4132  -1.1900   0.0000   0.2408
  -3.200  -0.3627   0.00806   0.00290  -0.0022  0.9722  0.4265  -1.1494   0.0000   0.2386
  -3.100  -0.3481   0.00794   0.00285  -0.0030  0.9703  0.4413  -1.1092   0.0000   0.2363
  -3.000  -0.3334   0.00785   0.00279  -0.0037  0.9684  0.4540  -1.0691   0.0000   0.2336
  -2.900  -0.3188   0.00773   0.00274  -0.0045  0.9666  0.4685  -1.0297   0.0000   0.2309
  -2.800  -0.3040   0.00764   0.00269  -0.0052  0.9649  0.4811  -0.9902   0.0000   0.2277
  -2.700  -0.2906   0.00753   0.00265  -0.0057  0.9626  0.4948  -0.9543   0.0000   0.2254
  -2.600  -0.2802   0.00746   0.00260  -0.0054  0.9580  0.5062  -0.9262   0.0000   0.2256
  -2.500  -0.2684   0.00735   0.00256  -0.0055  0.9541  0.5187  -0.8966   0.0000   0.2245
  -2.400  -0.2559   0.00727   0.00251  -0.0057  0.9507  0.5313  -0.8662   0.0000   0.2227
  -2.300  -0.2431   0.00718   0.00246  -0.0060  0.9476  0.5430  -0.8357   0.0000   0.2204
  -2.200  -0.2300   0.00709   0.00242  -0.0063  0.9448  0.5563  -0.8051   0.0000   0.2177
  -2.000  -0.2100   0.00694   0.00236  -0.0056  0.9338  0.5785  -0.7582   0.0000   0.2184
  -1.900  -0.1986   0.00687   0.00232  -0.0055  0.9292  0.5906  -0.7336   0.0000   0.2172
  -1.800  -0.1869   0.00680   0.00226  -0.0055  0.9250  0.6017  -0.7089   0.0000   0.2157
  -1.700  -0.1767   0.00673   0.00223  -0.0052  0.9194  0.6134  -0.6869   0.0000   0.2158
  -1.600  -0.1663   0.00668   0.00220  -0.0049  0.9130  0.6241  -0.6665   0.0000   0.2157
  -1.500  -0.1559   0.00660   0.00217  -0.0046  0.9072  0.6355  -0.6462   0.0000   0.2157
  -1.400  -0.1450   0.00655   0.00213  -0.0044  0.9019  0.6471  -0.6255   0.0000   0.2149
  -1.300  -0.1347   0.00651   0.00211  -0.0041  0.8953  0.6571  -0.6068   0.0000   0.2147
  -1.200  -0.1246   0.00644   0.00209  -0.0037  0.8882  0.6685  -0.5893   0.0000   0.2153
  -1.100  -0.1141   0.00641   0.00206  -0.0034  0.8814  0.6797  -0.5713   0.0000   0.2150
  -1.000  -0.1036   0.00636   0.00204  -0.0031  0.8750  0.6897  -0.5541   0.0000   0.2148
  -0.900  -0.0934   0.00631   0.00203  -0.0028  0.8674  0.7008  -0.5383   0.0000   0.2151
  -0.800  -0.0829   0.00629   0.00201  -0.0025  0.8594  0.7113  -0.5225   0.0000   0.2146
  -0.700  -0.0726   0.00626   0.00199  -0.0022  0.8519  0.7216  -0.5071   0.0000   0.2155
  -0.600  -0.0623   0.00622   0.00198  -0.0019  0.8441  0.7323  -0.4928   0.0000   0.2151
  -0.400  -0.0416   0.00619   0.00196  -0.0012  0.8270  0.7522  -0.4647   0.0000   0.2161
  -0.300  -0.0311   0.00617   0.00195  -0.0009  0.8186  0.7627  -0.4519   0.0000   0.2153
  -0.200  -0.0206   0.00617   0.00194  -0.0007  0.8093  0.7718  -0.4390   0.0000   0.2127
  -0.100  -0.0105   0.00616   0.00194  -0.0003  0.8003  0.7815  -0.4264   0.0000   0.2188
   0.000   0.0000   0.00615   0.00195  -0.0000  0.7915  0.7915  -0.4147   0.0000   0.4676
   0.100   0.0105   0.00616   0.00194   0.0003  0.7815  0.8003  -0.4264   0.0000   0.2188
   0.200   0.0206   0.00617   0.00195   0.0007  0.7718  0.8093  -0.4390   0.0000   0.2127
   0.300   0.0311   0.00617   0.00195   0.0009  0.7627  0.8186  -0.4519   0.0000   0.2153
   0.400   0.0416   0.00619   0.00196   0.0012  0.7522  0.8270  -0.4647   0.0000   0.2161
   0.600   0.0623   0.00622   0.00198   0.0019  0.7323  0.8441  -0.4928   0.0000   0.2151
   0.700   0.0726   0.00626   0.00199   0.0022  0.7216  0.8519  -0.5071   0.0000   0.2155
   0.800   0.0829   0.00629   0.00201   0.0025  0.7113  0.8594  -0.5225   0.0000   0.2146
   0.900   0.0934   0.00631   0.00203   0.0028  0.7008  0.8674  -0.5383   0.0000   0.2151
   1.000   0.1036   0.00636   0.00204   0.0031  0.6898  0.8750  -0.5541   0.0000   0.2148
   1.100   0.1141   0.00641   0.00206   0.0034  0.6797  0.8814  -0.5713   0.0000   0.2150
   1.200   0.1246   0.00644   0.00209   0.0037  0.6685  0.8882  -0.5893   0.0000   0.2153
   1.300   0.1347   0.00651   0.00211   0.0041  0.6572  0.8954  -0.6068   0.0000   0.2147
   1.400   0.1450   0.00655   0.00213   0.0044  0.6471  0.9019  -0.6255   0.0000   0.2149
   1.500   0.1559   0.00660   0.00217   0.0046  0.6354  0.9072  -0.6462   0.0000   0.2157
   1.600   0.1663   0.00668   0.00220   0.0049  0.6241  0.9130  -0.6665   0.0000   0.2157
   1.700   0.1767   0.00673   0.00223   0.0052  0.6134  0.9194  -0.6869   0.0000   0.2158
   1.800   0.1869   0.00680   0.00226   0.0055  0.6017  0.9250  -0.7089   0.0000   0.2157
   1.900   0.1986   0.00687   0.00232   0.0055  0.5905  0.9292  -0.7336   0.0000   0.2172
   2.000   0.2100   0.00694   0.00236   0.0056  0.5785  0.9338  -0.7582   0.0000   0.2184
   2.200   0.2300   0.00709   0.00242   0.0063  0.5563  0.9448  -0.8051   0.0000   0.2177
   2.300   0.2431   0.00718   0.00246   0.0060  0.5430  0.9476  -0.8357   0.0000   0.2204
   2.400   0.2559   0.00727   0.00251   0.0057  0.5313  0.9507  -0.8662   0.0000   0.2227
   2.500   0.2684   0.00735   0.00256   0.0055  0.5187  0.9541  -0.8966   0.0000   0.2245
   2.600   0.2802   0.00746   0.00260   0.0054  0.5062  0.9580  -0.9262   0.0000   0.2256
   2.700   0.2906   0.00753   0.00265   0.0057  0.4947  0.9627  -0.9543   0.0000   0.2254
   2.800   0.3040   0.00764   0.00269   0.0052  0.4811  0.9650  -0.9902   0.0000   0.2277
   2.900   0.3188   0.00773   0.00274   0.0045  0.4685  0.9666  -1.0297   0.0000   0.2309
   3.000   0.3334   0.00785   0.00279   0.0037  0.4540  0.9684  -1.0691   0.0000   0.2336
   3.100   0.3481   0.00794   0.00285   0.0030  0.4413  0.9703  -1.1092   0.0000   0.2363
   3.200   0.3627   0.00806   0.00290   0.0022  0.4264  0.9722  -1.1494   0.0000   0.2386
   3.300   0.3773   0.00816   0.00296   0.0015  0.4133  0.9741  -1.1899   0.0000   0.2408
   3.400   0.3910   0.00828   0.00301   0.0009  0.3989  0.9764  -1.2294   0.0000   0.2424
   3.500   0.4034   0.00838   0.00307   0.0007  0.3869  0.9792  -1.2703   0.0000   0.2430
   3.600   0.4183   0.00850   0.00315  -0.0002  0.3716  0.9806  -1.3205   0.0000   0.2451
   3.700   0.4342   0.00861   0.00320  -0.0012  0.3572  0.9815  -1.3721   0.0000   0.2475
   3.800   0.4494   0.00875   0.00326  -0.0022  0.3412  0.9826  -1.4229   0.0000   0.2495
   3.900   0.4650   0.00885   0.00332  -0.0031  0.3278  0.9838  -1.4747   0.0000   0.2514
   4.000   0.4800   0.00898   0.00338  -0.0040  0.3135  0.9851  -1.5260   0.0000   0.2530
   4.100   0.4950   0.00910   0.00344  -0.0049  0.2989  0.9866  -1.5776   0.0000   0.2545
   4.200   0.5095   0.00923   0.00351  -0.0057  0.2844  0.9882  -1.6286   0.0000   0.2557
   4.300   0.5236   0.00938   0.00358  -0.0064  0.2687  0.9898  -1.6793   0.0000   0.2567
   4.400   0.5377   0.00950   0.00365  -0.0071  0.2552  0.9915  -1.7305   0.0000   0.2576
   4.500   0.5516   0.00966   0.00374  -0.0078  0.2411  0.9930  -1.7817   0.0000   0.2585
   4.600   0.5670   0.00977   0.00380  -0.0088  0.2281  0.9939  -1.8419   0.0000   0.2598
   4.700   0.5820   0.00991   0.00388  -0.0097  0.2152  0.9949  -1.9057   0.0000   0.2609
   4.800   0.5969   0.01006   0.00396  -0.0106  0.2013  0.9960  -1.9700   0.0000   0.2620
   4.900   0.6118   0.01020   0.00404  -0.0115  0.1886  0.9971  -2.0351   0.0000   0.2629
   5.000   0.6264   0.01037   0.00413  -0.0124  0.1751  0.9983  -2.0998   0.0000   0.2638
   5.100   0.6411   0.01051   0.00425  -0.0132  0.1630  0.9993  -2.1672   0.0000   0.2646
   5.200   0.6539   0.01066   0.00434  -0.0137  0.1525  1.0000  -2.2294   0.0000   0.2649
   5.300   0.6626   0.01078   0.00442  -0.0133  0.1439  1.0000  -2.2807   0.0000   0.2639
   5.400   0.6711   0.01091   0.00450  -0.0129  0.1360  1.0000  -2.3317   0.0000   0.2630
   5.500   0.6798   0.01102   0.00459  -0.0125  0.1292  1.0000  -2.3835   0.0000   0.2620
   5.600   0.6881   0.01117   0.00468  -0.0120  0.1216  1.0000  -2.4346   0.0000   0.2611
   5.700   0.6967   0.01127   0.00477  -0.0116  0.1159  1.0000  -2.4867   0.0000   0.2601
   5.800   0.7052   0.01140   0.00487  -0.0111  0.1099  1.0000  -2.5387   0.0000   0.2592
   5.900   0.7133   0.01158   0.00499  -0.0106  0.1031  1.0000  -2.5895   0.0000   0.2582
   6.000   0.7219   0.01167   0.00509  -0.0102  0.0992  1.0000  -2.6427   0.0000   0.2573
   6.100   0.7303   0.01180   0.00519  -0.0097  0.0944  1.0000  -2.6953   0.0000   0.2564
   6.200   0.7382   0.01198   0.00532  -0.0091  0.0888  1.0000  -2.7466   0.0000   0.2554
   6.300   0.7467   0.01210   0.00544  -0.0086  0.0852  1.0000  -2.7996   0.0000   0.2545
   6.400   0.7552   0.01221   0.00555  -0.0081  0.0817  1.0000  -2.8536   0.0000   0.2537
   6.500   0.7633   0.01236   0.00566  -0.0076  0.0778  1.0000  -2.9068   0.0000   0.2528
   6.600   0.7709   0.01258   0.00584  -0.0070  0.0731  1.0000  -2.9569   0.0000   0.2518
   6.700   0.7794   0.01268   0.00596  -0.0065  0.0710  1.0000  -3.0116   0.0000   0.2510
   6.800   0.7880   0.01279   0.00607  -0.0060  0.0688  1.0000  -3.0675   0.0000   0.2501
   6.900   0.7963   0.01293   0.00620  -0.0055  0.0663  1.0000  -3.1323   0.0000   0.2493
   7.000   0.8043   0.01310   0.00634  -0.0049  0.0637  1.0000  -3.1964   0.0000   0.2485
   7.100   0.8116   0.01334   0.00659  -0.0043  0.0605  1.0000  -3.2589   0.0000   0.2475
   7.200   0.8195   0.01352   0.00678  -0.0037  0.0586  1.0000  -3.3226   0.0000   0.2466
   7.300   0.8282   0.01362   0.00690  -0.0032  0.0574  1.0000  -3.3909   0.0000   0.2459
   7.400   0.8366   0.01375   0.00703  -0.0027  0.0559  1.0000  -3.4586   0.0000   0.2451
   7.500   0.8450   0.01388   0.00718  -0.0022  0.0543  1.0000  -3.5263   0.0000   0.2444
   7.600   0.8532   0.01404   0.00733  -0.0016  0.0527  1.0000  -3.5936   0.0000   0.2436
   7.700   0.8611   0.01424   0.00750  -0.0011  0.0510  1.0000  -3.6599   0.0000   0.2429
   7.800   0.8682   0.01452   0.00777  -0.0004  0.0489  1.0000  -3.7205   0.0000   0.2419
   7.900   0.8743   0.01488   0.00816   0.0005  0.0470  1.0000  -3.7748   0.0000   0.2408
   8.000   0.8832   0.01499   0.00828   0.0009  0.0465  1.0000  -3.8464   0.0000   0.2403
   8.100   0.8919   0.01511   0.00843   0.0014  0.0457  1.0000  -3.9170   0.0000   0.2396
   8.200   0.9003   0.01526   0.00859   0.0019  0.0448  1.0000  -3.9869   0.0000   0.2390
   8.300   0.9087   0.01541   0.00876   0.0024  0.0438  1.0000  -4.0571   0.0000   0.2384
   8.400   0.9171   0.01557   0.00892   0.0029  0.0427  1.0000  -4.1281   0.0000   0.2377
   8.500   0.9255   0.01573   0.00909   0.0033  0.0417  1.0000  -4.2003   0.0000   0.2372
   8.600   0.9337   0.01591   0.00926   0.0038  0.0406  1.0000  -4.2722   0.0000   0.2366
   8.700   0.9415   0.01613   0.00948   0.0044  0.0395  1.0000  -4.3420   0.0000   0.2359
   8.800   0.9483   0.01646   0.00981   0.0051  0.0382  1.0000  -4.4044   0.0000   0.2351
   8.900   0.9526   0.01705   0.01043   0.0061  0.0366  1.0000  -4.4485   0.0000   0.2339
   9.000   0.9611   0.01723   0.01062   0.0066  0.0361  1.0000  -4.5216   0.0000   0.2334
   9.100   0.9702   0.01734   0.01078   0.0069  0.0357  1.0000  -4.5976   0.0000   0.2330
   9.200   0.9789   0.01750   0.01096   0.0073  0.0353  1.0000  -4.6722   0.0000   0.2325
   9.300   0.9875   0.01767   0.01116   0.0077  0.0348  1.0000  -4.7461   0.0000   0.2320
   9.400   0.9960   0.01787   0.01138   0.0081  0.0342  1.0000  -4.8195   0.0000   0.2316
   9.500   1.0044   0.01807   0.01160   0.0086  0.0335  1.0000  -4.8927   0.0000   0.2311
   9.600   1.0127   0.01828   0.01183   0.0090  0.0329  1.0000  -4.9661   0.0000   0.2306
   9.700   1.0209   0.01850   0.01206   0.0094  0.0323  1.0000  -5.0397   0.0000   0.2301
   9.800   1.0291   0.01872   0.01230   0.0098  0.0317  1.0000  -5.1139   0.0000   0.2297
   9.900   1.0373   0.01894   0.01254   0.0103  0.0311  1.0000  -5.1885   0.0000   0.2292
  10.000   1.0452   0.01918   0.01279   0.0107  0.0305  1.0000  -5.2626   0.0000   0.2287
  10.100   1.0528   0.01946   0.01308   0.0112  0.0299  1.0000  -5.3343   0.0000   0.2282
  10.200   1.0598   0.01980   0.01343   0.0118  0.0293  1.0000  -5.4018   0.0000   0.2276
  10.300   1.0658   0.02024   0.01389   0.0125  0.0287  1.0000  -5.4615   0.0000   0.2269
  10.400   1.0702   0.02084   0.01453   0.0134  0.0280  1.0000  -5.5080   0.0000   0.2260
  10.500   1.0724   0.02174   0.01549   0.0145  0.0272  1.0000  -5.5337   0.0000   0.2248
  10.600   1.0771   0.02236   0.01617   0.0153  0.0269  1.0000  -5.5806   0.0000   0.2240
  10.700   1.0850   0.02259   0.01643   0.0158  0.0267  1.0000  -5.6553   0.0000   0.2235
  10.800   1.0927   0.02284   0.01671   0.0162  0.0266  1.0000  -5.7290   0.0000   0.2231
  10.900   1.1001   0.02311   0.01701   0.0167  0.0264  1.0000  -5.8016   0.0000   0.2226
  11.000   1.1074   0.02339   0.01732   0.0172  0.0262  1.0000  -5.8731   0.0000   0.2222
  11.100   1.1145   0.02369   0.01766   0.0177  0.0261  1.0000  -5.9434   0.0000   0.2217
  11.200   1.1213   0.02401   0.01803   0.0182  0.0258  1.0000  -6.0135   0.0000   0.2212
  11.300   1.1279   0.02433   0.01839   0.0187  0.0256  1.0000  -6.0820   0.0000   0.2206
  11.400   1.1344   0.02468   0.01878   0.0193  0.0254  1.0000  -6.1490   0.0000   0.2201
  11.500   1.1406   0.02503   0.01917   0.0199  0.0251  1.0000  -6.2148   0.0000   0.2195
  11.600   1.1465   0.02539   0.01957   0.0205  0.0249  1.0000  -6.2795   0.0000   0.2190
  11.700   1.1523   0.02576   0.01999   0.0211  0.0246  1.0000  -6.3431   0.0000   0.2184
  11.800   1.1574   0.02614   0.02040   0.0218  0.0244  1.0000  -6.4046   0.0000   0.2177
  11.900   1.1621   0.02651   0.02081   0.0226  0.0241  1.0000  -6.4637   0.0000   0.2169
  12.000   1.1664   0.02689   0.02123   0.0234  0.0238  1.0000  -6.5286   0.0000   0.2161
  12.100   1.1705   0.02728   0.02166   0.0243  0.0236  1.0000  -6.5999   0.0000   0.2154
  12.200   1.1745   0.02768   0.02209   0.0251  0.0233  1.0000  -6.6710   0.0000   0.2146
  12.300   1.1783   0.02809   0.02254   0.0258  0.0231  1.0000  -6.7415   0.0000   0.2138
  12.400   1.1821   0.02851   0.02300   0.0266  0.0228  1.0000  -6.8120   0.0000   0.2131
  12.500   1.1858   0.02895   0.02347   0.0273  0.0226  1.0000  -6.8820   0.0000   0.2124
  12.600   1.1893   0.02940   0.02395   0.0280  0.0223  1.0000  -6.9515   0.0000   0.2117
  12.700   1.1926   0.02986   0.02445   0.0287  0.0221  1.0000  -7.0207   0.0000   0.2111
  12.800   1.1959   0.03034   0.02495   0.0293  0.0218  1.0000  -7.0904   0.0000   0.2105
  12.900   1.1991   0.03082   0.02546   0.0299  0.0216  1.0000  -7.1601   0.0000   0.2099
  13.000   1.2021   0.03134   0.02601   0.0304  0.0214  1.0000  -7.2284   0.0000   0.2093
  13.100   1.2046   0.03190   0.02660   0.0310  0.0211  1.0000  -7.2939   0.0000   0.2087
  13.200   1.2065   0.03254   0.02727   0.0315  0.0209  1.0000  -7.3547   0.0000   0.2082
  13.300   1.2076   0.03327   0.02804   0.0320  0.0206  1.0000  -7.4087   0.0000   0.2076
  13.400   1.2076   0.03416   0.02896   0.0325  0.0203  1.0000  -7.4524   0.0000   0.2070
  13.500   1.2059   0.03524   0.03010   0.0330  0.0200  1.0000  -7.4815   0.0000   0.2064
  13.600   1.2019   0.03659   0.03152   0.0335  0.0197  1.0000  -7.4904   0.0000   0.2057
  13.700   1.1951   0.03830   0.03333   0.0339  0.0194  1.0000  -7.4736   0.0000   0.2049
  13.800   1.1852   0.04046   0.03562   0.0342  0.0191  1.0000  -7.4275   0.0000   0.2042
  13.900   1.1725   0.04303   0.03835   0.0343  0.0189  1.0000  -7.3566   0.0000   0.2036
  14.000   1.1684   0.04459   0.03998   0.0342  0.0188  1.0000  -7.3621   0.0000   0.2035
  14.100   1.1695   0.04555   0.04098   0.0339  0.0188  1.0000  -7.4129   0.0000   0.2035
  14.200   1.1700   0.04661   0.04209   0.0336  0.0187  1.0000  -7.4584   0.0000   0.2036
  14.300   1.1702   0.04775   0.04329   0.0333  0.0187  1.0000  -7.5002   0.0000   0.2037
  14.400   1.1695   0.04904   0.04465   0.0328  0.0186  1.0000  -7.5351   0.0000   0.2038
  14.500   1.1685   0.05040   0.04607   0.0323  0.0186  1.0000  -7.5659   0.0000   0.2041
  14.600   1.1669   0.05188   0.04760   0.0316  0.0185  1.0000  -7.5911   0.0000   0.2043
  14.700   1.1646   0.05349   0.04927   0.0309  0.0185  1.0000  -7.6094   0.0000   0.2047
  14.800   1.1617   0.05520   0.05105   0.0301  0.0184  1.0000  -7.6221   0.0000   0.2051
  14.900   1.1580   0.05706   0.05298   0.0292  0.0184  1.0000  -7.6263   0.0000   0.2056
  15.000   1.1537   0.05903   0.05501   0.0282  0.0184  1.0000  -7.6253   0.0000   0.2061
  15.100   1.1490   0.06110   0.05715   0.0272  0.0183  1.0000  -7.6195   0.0000   0.2067
  15.200   1.1436   0.06335   0.05946   0.0259  0.0183  1.0000  -7.6062   0.0000   0.2074
  15.300   1.1377   0.06571   0.06189   0.0246  0.0183  1.0000  -7.5876   0.0000   0.2082
  15.400   1.1313   0.06819   0.06444   0.0232  0.0183  1.0000  -7.5632   0.0000   0.2091
  15.500   1.1240   0.07086   0.06719   0.0217  0.0182  1.0000  -7.5293   0.0000   0.2101
  15.600   1.1161   0.07368   0.07008   0.0200  0.0182  1.0000  -7.4883   0.0000   0.2113
  15.700   1.1077   0.07664   0.07311   0.0183  0.0182  1.0000  -7.4403   0.0000   0.2125
  15.800   1.0981   0.07981   0.07634   0.0164  0.0182  1.0000  -7.3807   0.0000   0.2138
  15.900   1.0876   0.08322   0.07983   0.0144  0.0182  1.0000  -7.3092   0.0000   0.2153
  16.000   1.0763   0.08686   0.08355   0.0122  0.0183  1.0000  -7.2271   0.0000   0.2170
  16.100   1.0640   0.09078   0.08754   0.0099  0.0183  1.0000  -7.1320   0.0000   0.2189
  16.200   1.0504   0.09506   0.09188   0.0073  0.0183  1.0000  -7.0187   0.0000   0.2210
  16.300   1.0345   0.09990   0.09681   0.0044  0.0183  1.0000  -6.8782   0.0000   0.2236
  16.400   1.0156   0.10548   0.10248   0.0010  0.0184  1.0000  -6.6997   0.0000   0.2266
  16.500   0.9901   0.11263   0.10973  -0.0032  0.0185  1.0000  -6.4404   0.0000   0.2308
  18.100   0.7552   0.21611   0.21358  -0.0511  0.0216  1.0000  -2.0596   0.0000   0.2979
  18.200   0.7583   0.21726   0.21473  -0.0517  0.0212  1.0000  -2.0763   0.0000   0.2982
  18.300   0.7616   0.21836   0.21584  -0.0522  0.0209  1.0000  -2.0964   0.0000   0.2985
  18.400   0.7649   0.21943   0.21690  -0.0528  0.0207  1.0000  -2.1191   0.0000   0.2987
  18.500   0.7683   0.22046   0.21794  -0.0533  0.0204  1.0000  -2.1443   0.0000   0.2989
  18.600   0.7718   0.22146   0.21894  -0.0538  0.0203  1.0000  -2.1717   0.0000   0.2990
  18.700   0.7754   0.22245   0.21992  -0.0542  0.0201  1.0000  -2.2014   0.0000   0.2991
  18.800   0.7790   0.22341   0.22089  -0.0547  0.0199  1.0000  -2.2333   0.0000   0.2991
  18.900   0.7827   0.22436   0.22184  -0.0550  0.0198  1.0000  -2.2671   0.0000   0.2990
  19.000   0.7862   0.22539   0.22288  -0.0555  0.0196  1.0000  -2.2968   0.0000   0.2991
  19.100   0.7896   0.22647   0.22396  -0.0559  0.0195  1.0000  -2.3256   0.0000   0.2991
  19.200   0.7842   0.23157   0.22903  -0.0570  0.0188  1.0000  -2.1545   0.0000   0.3011
  19.300   0.7866   0.23337   0.23083  -0.0579  0.0188  1.0000  -2.1321   0.0000   0.3019
  19.400   0.7891   0.23514   0.23261  -0.0588  0.0188  1.0000  -2.1115   0.0000   0.3026
  19.500   0.7915   0.23690   0.23436  -0.0596  0.0188  1.0000  -2.0922   0.0000   0.3033
  19.600   0.7941   0.23863   0.23610  -0.0605  0.0188  1.0000  -2.0742   0.0000   0.3040
  19.700   0.7966   0.24035   0.23782  -0.0613  0.0188  1.0000  -2.0573   0.0000   0.3047
  19.800   0.7992   0.24205   0.23952  -0.0622  0.0188  1.0000  -2.0415   0.0000   0.3054
  19.900   0.8018   0.24373   0.24120  -0.0631  0.0188  1.0000  -2.0264   0.0000   0.3061
  20.000   0.8045   0.24540   0.24287  -0.0639  0.0188  1.0000  -2.0121   0.0000   0.3068


