xflr5 v6.32

 Calculated polar for: NACA 0012

 1 1 Reynolds number fixed          Mach number fixed         

 xtrf =   1.000 (top)        1.000 (bottom)
 Mach =   0.000     Re =     0.300 e 6     Ncrit =   9.000

  alpha     CL        CD       CDp       Cm    Top Xtr Bot Xtr   Cpmin    Chinge    XCp    
 ------- -------- --------- --------- -------- ------- ------- -------- --------- ---------
 -14.900  -0.9575   0.09053   0.08686  -0.0151  1.0000  0.0272  -5.6432   0.0000   0.2151
 -14.800  -0.9666   0.08716   0.08342  -0.0174  1.0000  0.0272  -5.7053   0.0000   0.2130
 -14.700  -0.9755   0.08395   0.08014  -0.0196  1.0000  0.0271  -5.7620   0.0000   0.2110
 -14.600  -0.9843   0.08087   0.07699  -0.0218  1.0000  0.0271  -5.8147   0.0000   0.2093
 -14.500  -0.9930   0.07789   0.07394  -0.0238  1.0000  0.0271  -5.8646   0.0000   0.2077
 -14.400  -1.0017   0.07497   0.07095  -0.0257  1.0000  0.0270  -5.9126   0.0000   0.2061
 -14.300  -1.0105   0.07213   0.06804  -0.0276  1.0000  0.0270  -5.9590   0.0000   0.2047
 -14.200  -1.0193   0.06937   0.06520  -0.0293  1.0000  0.0270  -6.0041   0.0000   0.2035
 -14.100  -1.0283   0.06670   0.06245  -0.0309  1.0000  0.0270  -6.0481   0.0000   0.2024
 -14.000  -1.0374   0.06412   0.05977  -0.0323  1.0000  0.0270  -6.0912   0.0000   0.2016
 -13.900  -1.0466   0.06162   0.05719  -0.0336  1.0000  0.0270  -6.1337   0.0000   0.2009
 -13.800  -1.0560   0.05920   0.05467  -0.0346  1.0000  0.0271  -6.1757   0.0000   0.2004
 -13.700  -1.0654   0.05683   0.05220  -0.0355  1.0000  0.0271  -6.2175   0.0000   0.2000
 -13.600  -1.0748   0.05454   0.04980  -0.0362  1.0000  0.0271  -6.2584   0.0000   0.1999
 -13.500  -1.0842   0.05233   0.04748  -0.0366  1.0000  0.0272  -6.2979   0.0000   0.2000
 -13.400  -1.0934   0.05023   0.04526  -0.0368  1.0000  0.0273  -6.3349   0.0000   0.2004
 -13.300  -1.1020   0.04821   0.04313  -0.0368  1.0000  0.0274  -6.3678   0.0000   0.2008
 -13.200  -1.1098   0.04632   0.04113  -0.0366  1.0000  0.0275  -6.3941   0.0000   0.2014
 -13.100  -1.1164   0.04459   0.03929  -0.0362  1.0000  0.0277  -6.4108   0.0000   0.2022
 -13.000  -1.1215   0.04305   0.03766  -0.0357  1.0000  0.0279  -6.4155   0.0000   0.2029
 -12.900  -1.1250   0.04170   0.03622  -0.0351  1.0000  0.0281  -6.4075   0.0000   0.2037
 -12.800  -1.1272   0.04054   0.03499  -0.0345  1.0000  0.0284  -6.3872   0.0000   0.2045
 -12.700  -1.1281   0.03955   0.03394  -0.0338  1.0000  0.0286  -6.3565   0.0000   0.2053
 -12.600  -1.1281   0.03868   0.03302  -0.0332  1.0000  0.0288  -6.3178   0.0000   0.2060
 -12.500  -1.1274   0.03791   0.03221  -0.0325  1.0000  0.0291  -6.2730   0.0000   0.2068
 -12.400  -1.1262   0.03722   0.03148  -0.0317  1.0000  0.0293  -6.2243   0.0000   0.2076
 -12.300  -1.1246   0.03659   0.03081  -0.0310  1.0000  0.0296  -6.1729   0.0000   0.2084
 -12.200  -1.1228   0.03599   0.03017  -0.0302  1.0000  0.0298  -6.1197   0.0000   0.2092
 -12.100  -1.1208   0.03542   0.02955  -0.0293  1.0000  0.0301  -6.0654   0.0000   0.2100
 -12.000  -1.1186   0.03486   0.02896  -0.0285  1.0000  0.0304  -6.0103   0.0000   0.2109
 -11.900  -1.1162   0.03433   0.02838  -0.0276  1.0000  0.0307  -5.9545   0.0000   0.2118
 -11.800  -1.1135   0.03380   0.02780  -0.0267  1.0000  0.0310  -5.8978   0.0000   0.2127
 -11.700  -1.1103   0.03327   0.02722  -0.0258  1.0000  0.0313  -5.8519   0.0000   0.2136
 -11.600  -1.1064   0.03273   0.02663  -0.0251  1.0000  0.0316  -5.8044   0.0000   0.2143
 -11.500  -1.1020   0.03219   0.02603  -0.0244  1.0000  0.0320  -5.7557   0.0000   0.2149
 -11.400  -1.0974   0.03164   0.02540  -0.0237  1.0000  0.0323  -5.7062   0.0000   0.2156
 -11.300  -1.0925   0.03110   0.02480  -0.0231  1.0000  0.0327  -5.6565   0.0000   0.2162
 -11.200  -1.0874   0.03057   0.02420  -0.0224  1.0000  0.0330  -5.6060   0.0000   0.2169
 -11.100  -1.0818   0.03004   0.02362  -0.0218  1.0000  0.0334  -5.5539   0.0000   0.2175
 -11.000  -1.0761   0.02953   0.02305  -0.0212  1.0000  0.0338  -5.5010   0.0000   0.2180
 -10.900  -1.0701   0.02903   0.02249  -0.0206  1.0000  0.0341  -5.4471   0.0000   0.2186
 -10.800  -1.0639   0.02855   0.02196  -0.0200  1.0000  0.0345  -5.3922   0.0000   0.2192
 -10.700  -1.0575   0.02810   0.02144  -0.0195  1.0000  0.0349  -5.3360   0.0000   0.2197
 -10.600  -1.0508   0.02767   0.02096  -0.0189  1.0000  0.0353  -5.2783   0.0000   0.2202
 -10.500  -1.0440   0.02728   0.02051  -0.0184  1.0000  0.0356  -5.2189   0.0000   0.2208
 -10.400  -1.0369   0.02693   0.02010  -0.0179  1.0000  0.0359  -5.1577   0.0000   0.2213
 -10.300  -1.0295   0.02662   0.01973  -0.0174  1.0000  0.0362  -5.0946   0.0000   0.2217
 -10.200  -1.0227   0.02611   0.01918  -0.0169  1.0000  0.0365  -5.0397   0.0000   0.2223
 -10.100  -1.0192   0.02474   0.01774  -0.0160  1.0000  0.0376  -5.0216   0.0000   0.2231
 -10.000  -1.0136   0.02403   0.01701  -0.0154  1.0000  0.0384  -4.9737   0.0000   0.2238
  -9.900  -1.0071   0.02356   0.01653  -0.0148  1.0000  0.0391  -4.9138   0.0000   0.2244
  -9.800  -1.0000   0.02322   0.01619  -0.0143  1.0000  0.0399  -4.8474   0.0000   0.2249
  -9.700  -0.9924   0.02294   0.01590  -0.0138  1.0000  0.0407  -4.7781   0.0000   0.2254
  -9.600  -0.9847   0.02269   0.01564  -0.0134  1.0000  0.0415  -4.7082   0.0000   0.2259
  -9.500  -0.9768   0.02245   0.01538  -0.0130  1.0000  0.0425  -4.6389   0.0000   0.2263
  -9.400  -0.9688   0.02220   0.01511  -0.0125  1.0000  0.0434  -4.5707   0.0000   0.2268
  -9.300  -0.9607   0.02196   0.01483  -0.0121  1.0000  0.0444  -4.5039   0.0000   0.2273
  -9.200  -0.9526   0.02172   0.01452  -0.0116  1.0000  0.0453  -4.4386   0.0000   0.2278
  -9.100  -0.9442   0.02150   0.01426  -0.0112  1.0000  0.0461  -4.3715   0.0000   0.2282
  -9.000  -0.9358   0.02130   0.01402  -0.0108  1.0000  0.0467  -4.3037   0.0000   0.2287
  -8.900  -0.9271   0.02113   0.01380  -0.0104  1.0000  0.0471  -4.2352   0.0000   0.2291
  -8.800  -0.9228   0.02020   0.01286  -0.0094  1.0000  0.0486  -4.2008   0.0000   0.2302
  -8.700  -0.9167   0.01968   0.01236  -0.0087  1.0000  0.0499  -4.1475   0.0000   0.2311
  -8.600  -0.9095   0.01933   0.01202  -0.0081  1.0000  0.0510  -4.0858   0.0000   0.2318
  -8.500  -0.9018   0.01906   0.01175  -0.0076  1.0000  0.0522  -4.0208   0.0000   0.2324
  -8.400  -0.8939   0.01882   0.01150  -0.0070  1.0000  0.0534  -3.9556   0.0000   0.2330
  -8.300  -0.8859   0.01858   0.01125  -0.0065  1.0000  0.0546  -3.8909   0.0000   0.2336
  -8.200  -0.8779   0.01836   0.01100  -0.0060  1.0000  0.0559  -3.8267   0.0000   0.2342
  -8.100  -0.8697   0.01814   0.01076  -0.0055  1.0000  0.0572  -3.7625   0.0000   0.2349
  -8.000  -0.8613   0.01797   0.01054  -0.0050  1.0000  0.0584  -3.6974   0.0000   0.2355
  -7.900  -0.8525   0.01783   0.01037  -0.0045  1.0000  0.0592  -3.6304   0.0000   0.2361
  -7.800  -0.8480   0.01721   0.00978  -0.0035  1.0000  0.0616  -3.5873   0.0000   0.2374
  -7.700  -0.8413   0.01688   0.00947  -0.0028  1.0000  0.0636  -3.5291   0.0000   0.2383
  -7.600  -0.8336   0.01665   0.00925  -0.0022  1.0000  0.0655  -3.4659   0.0000   0.2391
  -7.500  -0.8255   0.01647   0.00906  -0.0016  1.0000  0.0674  -3.4015   0.0000   0.2398
  -7.400  -0.8172   0.01630   0.00888  -0.0011  1.0000  0.0696  -3.3367   0.0000   0.2405
  -7.300  -0.8085   0.01617   0.00872  -0.0007  1.0000  0.0716  -3.2707   0.0000   0.2412
  -7.200  -0.8012   0.01590   0.00845  -0.0000  1.0000  0.0740  -3.2117   0.0000   0.2421
  -7.100  -0.7946   0.01556   0.00812   0.0007  1.0000  0.0774  -3.1534   0.0000   0.2431
  -7.000  -0.7868   0.01535   0.00794   0.0013  1.0000  0.0804  -3.0912   0.0000   0.2439
  -6.900  -0.7785   0.01520   0.00778   0.0018  1.0000  0.0834  -3.0282   0.0000   0.2447
  -6.800  -0.7699   0.01507   0.00762   0.0023  1.0000  0.0862  -2.9751   0.0000   0.2455
  -6.700  -0.7629   0.01477   0.00735   0.0030  1.0000  0.0900  -2.9298   0.0000   0.2465
  -6.600  -0.7556   0.01452   0.00714   0.0037  1.0000  0.0942  -2.8812   0.0000   0.2475
  -6.500  -0.7475   0.01434   0.00698   0.0042  1.0000  0.0983  -2.8306   0.0000   0.2484
  -6.400  -0.7390   0.01421   0.00682   0.0047  1.0000  0.1021  -2.7789   0.0000   0.2492
  -6.300  -0.7318   0.01394   0.00660   0.0054  1.0000  0.1075  -2.7323   0.0000   0.2503
  -6.200  -0.7240   0.01373   0.00644   0.0060  1.0000  0.1131  -2.6826   0.0000   0.2513
  -6.100  -0.7156   0.01360   0.00630   0.0065  1.0000  0.1185  -2.6316   0.0000   0.2522
  -6.000  -0.7080   0.01337   0.00612   0.0071  1.0000  0.1253  -2.5833   0.0000   0.2532
  -5.900  -0.7001   0.01318   0.00598   0.0076  1.0000  0.1326  -2.5334   0.0000   0.2541
  -5.800  -0.6918   0.01303   0.00585   0.0081  1.0000  0.1401  -2.4831   0.0000   0.2551
  -5.700  -0.6840   0.01282   0.00571   0.0086  1.0000  0.1491  -2.4341   0.0000   0.2561
  -5.600  -0.6756   0.01268   0.00559   0.0091  1.0000  0.1578  -2.3837   0.0000   0.2571
  -5.500  -0.6678   0.01247   0.00547   0.0096  1.0000  0.1682  -2.3349   0.0000   0.2581
  -5.400  -0.6594   0.01234   0.00535   0.0101  1.0000  0.1781  -2.2848   0.0000   0.2591
  -5.300  -0.6514   0.01215   0.00524   0.0106  1.0000  0.1894  -2.2359   0.0000   0.2601
  -5.200  -0.6429   0.01201   0.00514   0.0111  1.0000  0.2001  -2.1859   0.0000   0.2611
  -5.100  -0.6347   0.01184   0.00501   0.0115  1.0000  0.2118  -2.1348   0.0000   0.2621
  -5.000  -0.6262   0.01171   0.00492   0.0119  1.0000  0.2229  -2.0856   0.0000   0.2631
  -4.900  -0.6178   0.01156   0.00484   0.0124  1.0000  0.2356  -2.0369   0.0000   0.2642
  -4.800  -0.6093   0.01143   0.00476   0.0128  1.0000  0.2478  -1.9882   0.0000   0.2652
  -4.700  -0.6007   0.01130   0.00469   0.0132  1.0000  0.2613  -1.9396   0.0000   0.2662
  -4.600  -0.5922   0.01117   0.00462   0.0136  1.0000  0.2742  -1.8916   0.0000   0.2673
  -4.500  -0.5834   0.01106   0.00456   0.0140  1.0000  0.2879  -1.8432   0.0000   0.2684
  -4.400  -0.5748   0.01093   0.00450   0.0143  1.0000  0.3010  -1.7988   0.0000   0.2695
  -4.300  -0.5658   0.01085   0.00445   0.0147  1.0000  0.3142  -1.7577   0.0000   0.2705
  -4.200  -0.5569   0.01073   0.00441   0.0150  1.0000  0.3272  -1.7175   0.0000   0.2716
  -4.100  -0.5477   0.01066   0.00437   0.0153  1.0000  0.3402  -1.6766   0.0000   0.2726
  -4.000  -0.5388   0.01054   0.00433   0.0156  1.0000  0.3537  -1.6366   0.0000   0.2737
  -3.900  -0.5296   0.01048   0.00430   0.0159  1.0000  0.3671  -1.5962   0.0000   0.2748
  -3.800  -0.5206   0.01037   0.00428   0.0162  1.0000  0.3808  -1.5566   0.0000   0.2760
  -3.600  -0.4925   0.01018   0.00420   0.0147  0.9975  0.4121  -1.4582   0.0000   0.2749
  -3.500  -0.4763   0.01009   0.00417   0.0136  0.9957  0.4280  -1.4056   0.0000   0.2736
  -3.400  -0.4600   0.01000   0.00415   0.0124  0.9941  0.4450  -1.3530   0.0000   0.2721
  -3.300  -0.4436   0.00990   0.00409   0.0112  0.9925  0.4606  -1.2996   0.0000   0.2705
  -3.200  -0.4285   0.00981   0.00404   0.0103  0.9899  0.4763  -1.2517   0.0000   0.2693
  -3.100  -0.4133   0.00969   0.00401   0.0094  0.9875  0.4916  -1.2097   0.0000   0.2681
  -3.000  -0.3973   0.00963   0.00398   0.0084  0.9853  0.5070  -1.1668   0.0000   0.2664
  -2.900  -0.3812   0.00952   0.00395   0.0073  0.9833  0.5222  -1.1242   0.0000   0.2645
  -2.700  -0.3474   0.00935   0.00391   0.0049  0.9802  0.5530  -1.0376   0.0000   0.2593
  -2.500  -0.3198   0.00917   0.00384   0.0038  0.9738  0.5806  -0.9631   0.0000   0.2573
  -2.400  -0.3042   0.00910   0.00380   0.0029  0.9711  0.5950  -0.9282   0.0000   0.2549
  -2.300  -0.2883   0.00899   0.00378   0.0019  0.9689  0.6088  -0.8932   0.0000   0.2522
  -2.200  -0.2715   0.00892   0.00374   0.0008  0.9670  0.6233  -0.8575   0.0000   0.2484
  -2.100  -0.2547   0.00882   0.00372  -0.0003  0.9654  0.6368  -0.8219   0.0000   0.2442
  -2.000  -0.2373   0.00875   0.00368  -0.0016  0.9640  0.6509  -0.7884   0.0000   0.2388
  -1.900  -0.2255   0.00866   0.00366  -0.0016  0.9596  0.6626  -0.7633   0.0000   0.2385
  -1.800  -0.2125   0.00858   0.00363  -0.0018  0.9556  0.6755  -0.7368   0.0000   0.2368
  -1.700  -0.1981   0.00850   0.00357  -0.0024  0.9523  0.6873  -0.7092   0.0000   0.2334
  -1.600  -0.1835   0.00841   0.00354  -0.0029  0.9494  0.6998  -0.6832   0.0000   0.2294
  -1.500  -0.1681   0.00834   0.00349  -0.0037  0.9467  0.7121  -0.6581   0.0000   0.2236
  -1.400  -0.1540   0.00825   0.00347  -0.0041  0.9438  0.7230  -0.6342   0.0000   0.2188
  -1.300  -0.1445   0.00819   0.00345  -0.0036  0.9376  0.7344  -0.6154   0.0000   0.2208
  -1.200  -0.1324   0.00813   0.00342  -0.0036  0.9326  0.7450  -0.5960   0.0000   0.2185
  -1.100  -0.1196   0.00805   0.00339  -0.0036  0.9284  0.7556  -0.5760   0.0000   0.2149
  -1.000  -0.1062   0.00799   0.00335  -0.0039  0.9247  0.7667  -0.5561   0.0000   0.2088
  -0.900  -0.0959   0.00794   0.00334  -0.0035  0.9186  0.7763  -0.5403   0.0000   0.2093
  -0.800  -0.0856   0.00789   0.00334  -0.0030  0.9120  0.7864  -0.5244   0.0000   0.2100
  -0.700  -0.0742   0.00785   0.00329  -0.0028  0.9064  0.7965  -0.5081   0.0000   0.2071
  -0.600  -0.0620   0.00780   0.00327  -0.0027  0.9015  0.8053  -0.4924   0.0000   0.2015
  -0.500  -0.0524   0.00777   0.00328  -0.0021  0.8941  0.8149  -0.4788   0.0000   0.2043
  -0.400  -0.0423   0.00775   0.00326  -0.0017  0.8867  0.8245  -0.4650   0.0000   0.2051
  -0.300  -0.0310   0.00772   0.00325  -0.0014  0.8804  0.8323  -0.4515   0.0000   0.2012
  -0.200  -0.0204   0.00770   0.00325  -0.0009  0.8735  0.8411  -0.4385   0.0000   0.1989
  -0.100  -0.0109   0.00770   0.00324  -0.0004  0.8650  0.8503  -0.4263   0.0000   0.2083
   0.000   0.0000   0.00769   0.00324  -0.0000  0.8574  0.8574  -0.4142   0.0000   0.4556
   0.100   0.0109   0.00770   0.00324   0.0004  0.8503  0.8650  -0.4263   0.0000   0.2083
   0.200   0.0204   0.00770   0.00325   0.0009  0.8411  0.8736  -0.4385   0.0000   0.1989
   0.300   0.0310   0.00772   0.00325   0.0014  0.8323  0.8804  -0.4515   0.0000   0.2012
   0.400   0.0423   0.00775   0.00326   0.0017  0.8245  0.8867  -0.4650   0.0000   0.2051
   0.500   0.0524   0.00777   0.00328   0.0021  0.8149  0.8941  -0.4788   0.0000   0.2043
   0.600   0.0620   0.00780   0.00327   0.0027  0.8053  0.9015  -0.4924   0.0000   0.2015
   0.700   0.0742   0.00785   0.00329   0.0028  0.7965  0.9063  -0.5080   0.0000   0.2071
   0.800   0.0856   0.00789   0.00334   0.0030  0.7864  0.9120  -0.5244   0.0000   0.2100
   0.900   0.0959   0.00794   0.00334   0.0035  0.7763  0.9186  -0.5403   0.0000   0.2093
   1.000   0.1062   0.00799   0.00335   0.0039  0.7667  0.9247  -0.5561   0.0000   0.2088
   1.100   0.1196   0.00805   0.00339   0.0036  0.7556  0.9284  -0.5760   0.0000   0.2149
   1.200   0.1323   0.00813   0.00342   0.0036  0.7450  0.9326  -0.5960   0.0000   0.2185
   1.300   0.1445   0.00819   0.00345   0.0036  0.7343  0.9376  -0.6154   0.0000   0.2208
   1.400   0.1540   0.00825   0.00347   0.0041  0.7230  0.9439  -0.6341   0.0000   0.2188
   1.500   0.1681   0.00834   0.00349   0.0037  0.7120  0.9467  -0.6581   0.0000   0.2235
   1.600   0.1835   0.00841   0.00354   0.0029  0.6998  0.9494  -0.6832   0.0000   0.2294
   1.700   0.1981   0.00850   0.00357   0.0024  0.6873  0.9524  -0.7092   0.0000   0.2334
   1.800   0.2124   0.00857   0.00363   0.0018  0.6754  0.9556  -0.7368   0.0000   0.2368
   1.900   0.2255   0.00866   0.00366   0.0016  0.6626  0.9596  -0.7632   0.0000   0.2385
   2.000   0.2373   0.00874   0.00368   0.0016  0.6509  0.9640  -0.7884   0.0000   0.2388
   2.100   0.2547   0.00882   0.00372   0.0003  0.6368  0.9654  -0.8219   0.0000   0.2442
   2.200   0.2715   0.00892   0.00374  -0.0008  0.6233  0.9670  -0.8575   0.0000   0.2484
   2.300   0.2883   0.00899   0.00378  -0.0019  0.6088  0.9689  -0.8932   0.0000   0.2522
   2.400   0.3041   0.00910   0.00380  -0.0029  0.5949  0.9711  -0.9282   0.0000   0.2549
   2.500   0.3198   0.00916   0.00384  -0.0038  0.5806  0.9738  -0.9631   0.0000   0.2573
   2.700   0.3474   0.00935   0.00391  -0.0049  0.5530  0.9802  -1.0376   0.0000   0.2594
   2.900   0.3812   0.00951   0.00395  -0.0073  0.5222  0.9834  -1.1242   0.0000   0.2645
   3.000   0.3973   0.00963   0.00397  -0.0084  0.5069  0.9854  -1.1668   0.0000   0.2664
   3.100   0.4133   0.00969   0.00401  -0.0094  0.4916  0.9876  -1.2097   0.0000   0.2681
   3.200   0.4285   0.00981   0.00404  -0.0103  0.4763  0.9900  -1.2517   0.0000   0.2693
   3.300   0.4436   0.00990   0.00409  -0.0112  0.4606  0.9925  -1.2995   0.0000   0.2705
   3.400   0.4600   0.00999   0.00414  -0.0124  0.4449  0.9941  -1.3530   0.0000   0.2721
   3.500   0.4763   0.01009   0.00417  -0.0136  0.4280  0.9958  -1.4056   0.0000   0.2736
   3.600   0.4925   0.01018   0.00420  -0.0147  0.4121  0.9976  -1.4583   0.0000   0.2749
   3.800   0.5204   0.01037   0.00427  -0.0161  0.3809  1.0000  -1.5563   0.0000   0.2759
   3.900   0.5294   0.01048   0.00430  -0.0158  0.3671  1.0000  -1.5959   0.0000   0.2748
   4.000   0.5387   0.01054   0.00433  -0.0156  0.3537  1.0000  -1.6363   0.0000   0.2737
   4.100   0.5476   0.01065   0.00436  -0.0153  0.3402  1.0000  -1.6763   0.0000   0.2726
   4.200   0.5568   0.01072   0.00440  -0.0150  0.3272  1.0000  -1.7172   0.0000   0.2715
   4.300   0.5656   0.01085   0.00445  -0.0146  0.3142  1.0000  -1.7574   0.0000   0.2705
   4.400   0.5747   0.01093   0.00450  -0.0143  0.3011  1.0000  -1.7985   0.0000   0.2694
   4.500   0.5832   0.01106   0.00456  -0.0139  0.2879  1.0000  -1.8428   0.0000   0.2683
   4.600   0.5920   0.01116   0.00461  -0.0136  0.2743  1.0000  -1.8912   0.0000   0.2673
   4.700   0.6005   0.01130   0.00468  -0.0132  0.2614  1.0000  -1.9393   0.0000   0.2662
   4.800   0.6091   0.01143   0.00475  -0.0128  0.2479  1.0000  -1.9879   0.0000   0.2651
   4.900   0.6177   0.01156   0.00483  -0.0123  0.2357  1.0000  -2.0366   0.0000   0.2641
   5.000   0.6260   0.01171   0.00492  -0.0119  0.2230  1.0000  -2.0853   0.0000   0.2631
   5.100   0.6346   0.01184   0.00501  -0.0115  0.2119  1.0000  -2.1345   0.0000   0.2621
   5.200   0.6428   0.01201   0.00514  -0.0110  0.2002  1.0000  -2.1856   0.0000   0.2610
   5.300   0.6513   0.01214   0.00524  -0.0106  0.1895  1.0000  -2.2356   0.0000   0.2600
   5.400   0.6593   0.01233   0.00535  -0.0101  0.1782  1.0000  -2.2845   0.0000   0.2590
   5.500   0.6677   0.01247   0.00546  -0.0096  0.1683  1.0000  -2.3346   0.0000   0.2580
   5.600   0.6755   0.01268   0.00559  -0.0091  0.1579  1.0000  -2.3834   0.0000   0.2570
   5.700   0.6839   0.01282   0.00571  -0.0086  0.1491  1.0000  -2.4338   0.0000   0.2561
   5.800   0.6917   0.01303   0.00585  -0.0081  0.1401  1.0000  -2.4828   0.0000   0.2551
   5.900   0.6999   0.01318   0.00598  -0.0076  0.1326  1.0000  -2.5330   0.0000   0.2541
   6.000   0.7079   0.01336   0.00612  -0.0070  0.1253  1.0000  -2.5830   0.0000   0.2531
   6.100   0.7155   0.01360   0.00630  -0.0064  0.1185  1.0000  -2.6312   0.0000   0.2521
   6.200   0.7239   0.01373   0.00644  -0.0059  0.1131  1.0000  -2.6823   0.0000   0.2512
   6.300   0.7317   0.01394   0.00660  -0.0054  0.1076  1.0000  -2.7320   0.0000   0.2503
   6.400   0.7389   0.01421   0.00682  -0.0047  0.1021  1.0000  -2.7787   0.0000   0.2492
   6.500   0.7474   0.01434   0.00697  -0.0042  0.0983  1.0000  -2.8303   0.0000   0.2484
   6.600   0.7555   0.01452   0.00714  -0.0036  0.0942  1.0000  -2.8810   0.0000   0.2475
   6.700   0.7628   0.01477   0.00734  -0.0030  0.0901  1.0000  -2.9295   0.0000   0.2465
   6.800   0.7698   0.01507   0.00762  -0.0023  0.0862  1.0000  -2.9748   0.0000   0.2455
   6.900   0.7784   0.01519   0.00777  -0.0018  0.0834  1.0000  -3.0279   0.0000   0.2447
   7.000   0.7867   0.01535   0.00794  -0.0013  0.0804  1.0000  -3.0909   0.0000   0.2439
   7.100   0.7946   0.01555   0.00811  -0.0007  0.0774  1.0000  -3.1532   0.0000   0.2431
   7.200   0.8011   0.01590   0.00844   0.0000  0.0740  1.0000  -3.2115   0.0000   0.2421
   7.300   0.8085   0.01617   0.00872   0.0007  0.0716  1.0000  -3.2705   0.0000   0.2412
   7.400   0.8171   0.01630   0.00888   0.0012  0.0696  1.0000  -3.3365   0.0000   0.2405
   7.500   0.8254   0.01646   0.00906   0.0017  0.0675  1.0000  -3.4013   0.0000   0.2398
   7.600   0.8335   0.01665   0.00925   0.0022  0.0655  1.0000  -3.4658   0.0000   0.2391
   7.700   0.8412   0.01688   0.00947   0.0028  0.0636  1.0000  -3.5289   0.0000   0.2383
   7.800   0.8480   0.01721   0.00977   0.0035  0.0616  1.0000  -3.5872   0.0000   0.2374
   7.900   0.8525   0.01783   0.01036   0.0045  0.0592  1.0000  -3.6303   0.0000   0.2361
   8.000   0.8613   0.01796   0.01054   0.0050  0.0584  1.0000  -3.6973   0.0000   0.2355
   8.100   0.8697   0.01814   0.01076   0.0055  0.0572  1.0000  -3.7625   0.0000   0.2349
   8.200   0.8779   0.01835   0.01100   0.0060  0.0559  1.0000  -3.8267   0.0000   0.2342
   8.300   0.8859   0.01858   0.01124   0.0065  0.0546  1.0000  -3.8910   0.0000   0.2336
   8.400   0.8939   0.01882   0.01149   0.0070  0.0533  1.0000  -3.9557   0.0000   0.2330
   8.500   0.9018   0.01906   0.01175   0.0075  0.0522  1.0000  -4.0209   0.0000   0.2324
   8.600   0.9096   0.01933   0.01202   0.0081  0.0510  1.0000  -4.0860   0.0000   0.2318
   8.700   0.9167   0.01968   0.01235   0.0087  0.0499  1.0000  -4.1477   0.0000   0.2311
   8.800   0.9229   0.02020   0.01286   0.0094  0.0486  1.0000  -4.2010   0.0000   0.2302
   8.900   0.9272   0.02113   0.01380   0.0103  0.0471  1.0000  -4.2355   0.0000   0.2292
   9.000   0.9359   0.02130   0.01402   0.0108  0.0467  1.0000  -4.3041   0.0000   0.2287
   9.100   0.9444   0.02150   0.01426   0.0112  0.0461  1.0000  -4.3719   0.0000   0.2282
   9.200   0.9527   0.02172   0.01452   0.0116  0.0453  1.0000  -4.4391   0.0000   0.2278
   9.300   0.9609   0.02196   0.01483   0.0121  0.0444  1.0000  -4.5044   0.0000   0.2273
   9.400   0.9690   0.02220   0.01511   0.0125  0.0434  1.0000  -4.5713   0.0000   0.2268
   9.500   0.9769   0.02245   0.01538   0.0129  0.0425  1.0000  -4.6395   0.0000   0.2264
   9.600   0.9849   0.02269   0.01564   0.0134  0.0415  1.0000  -4.7089   0.0000   0.2259
   9.700   0.9926   0.02294   0.01590   0.0138  0.0407  1.0000  -4.7788   0.0000   0.2255
   9.800   1.0002   0.02322   0.01619   0.0143  0.0399  1.0000  -4.8481   0.0000   0.2250
   9.900   1.0073   0.02356   0.01653   0.0148  0.0391  1.0000  -4.9146   0.0000   0.2245
  10.000   1.0139   0.02403   0.01701   0.0153  0.0384  1.0000  -4.9744   0.0000   0.2239
  10.100   1.0194   0.02475   0.01775   0.0160  0.0375  1.0000  -5.0222   0.0000   0.2232
  10.200   1.0229   0.02614   0.01920   0.0168  0.0365  1.0000  -5.0396   0.0000   0.2223
  10.300   1.0298   0.02662   0.01973   0.0174  0.0362  1.0000  -5.0956   0.0000   0.2218
  10.400   1.0372   0.02693   0.02010   0.0178  0.0359  1.0000  -5.1588   0.0000   0.2213
  10.500   1.0443   0.02728   0.02051   0.0184  0.0356  1.0000  -5.2201   0.0000   0.2208
  10.600   1.0512   0.02767   0.02096   0.0189  0.0353  1.0000  -5.2795   0.0000   0.2203
  10.700   1.0578   0.02810   0.02144   0.0194  0.0349  1.0000  -5.3372   0.0000   0.2198
  10.800   1.0643   0.02856   0.02196   0.0200  0.0345  1.0000  -5.3935   0.0000   0.2192
  10.900   1.0705   0.02904   0.02250   0.0205  0.0341  1.0000  -5.4485   0.0000   0.2187
  11.000   1.0765   0.02954   0.02306   0.0211  0.0338  1.0000  -5.5024   0.0000   0.2181
  11.100   1.0823   0.03005   0.02363   0.0217  0.0334  1.0000  -5.5554   0.0000   0.2175
  11.200   1.0878   0.03057   0.02421   0.0223  0.0330  1.0000  -5.6076   0.0000   0.2170
  11.300   1.0930   0.03111   0.02480   0.0230  0.0326  1.0000  -5.6582   0.0000   0.2163
  11.400   1.0979   0.03165   0.02540   0.0236  0.0323  1.0000  -5.7080   0.0000   0.2157
  11.500   1.1026   0.03219   0.02603   0.0243  0.0319  1.0000  -5.7577   0.0000   0.2150
  11.600   1.1070   0.03273   0.02663   0.0250  0.0316  1.0000  -5.8065   0.0000   0.2144
  11.700   1.1110   0.03328   0.02723   0.0257  0.0313  1.0000  -5.8543   0.0000   0.2137
  11.800   1.1142   0.03380   0.02781   0.0265  0.0310  1.0000  -5.9010   0.0000   0.2128
  11.900   1.1170   0.03433   0.02838   0.0274  0.0307  1.0000  -5.9580   0.0000   0.2120
  12.000   1.1194   0.03487   0.02897   0.0283  0.0304  1.0000  -6.0141   0.0000   0.2111
  12.100   1.1217   0.03542   0.02956   0.0292  0.0301  1.0000  -6.0694   0.0000   0.2102
  12.200   1.1237   0.03599   0.03017   0.0300  0.0298  1.0000  -6.1239   0.0000   0.2094
  12.300   1.1256   0.03659   0.03081   0.0308  0.0296  1.0000  -6.1774   0.0000   0.2085
  12.400   1.1272   0.03723   0.03149   0.0316  0.0293  1.0000  -6.2290   0.0000   0.2077
  12.500   1.1284   0.03792   0.03222   0.0323  0.0291  1.0000  -6.2778   0.0000   0.2070
  12.600   1.1291   0.03870   0.03304   0.0330  0.0288  1.0000  -6.3226   0.0000   0.2062
  12.700   1.1291   0.03957   0.03396   0.0336  0.0286  1.0000  -6.3611   0.0000   0.2055
  12.800   1.1282   0.04057   0.03503   0.0343  0.0283  1.0000  -6.3913   0.0000   0.2047
  12.900   1.1260   0.04175   0.03627   0.0349  0.0281  1.0000  -6.4108   0.0000   0.2039
  13.000   1.1223   0.04312   0.03773   0.0355  0.0279  1.0000  -6.4179   0.0000   0.2031
  13.100   1.1171   0.04468   0.03939   0.0360  0.0277  1.0000  -6.4119   0.0000   0.2024
  13.200   1.1104   0.04643   0.04124   0.0363  0.0275  1.0000  -6.3940   0.0000   0.2017
  13.300   1.1025   0.04834   0.04327   0.0365  0.0274  1.0000  -6.3666   0.0000   0.2011
  13.400   1.0938   0.05038   0.04542   0.0365  0.0273  1.0000  -6.3328   0.0000   0.2006
  13.500   1.0846   0.05250   0.04766   0.0363  0.0272  1.0000  -6.2952   0.0000   0.2003
  13.600   1.0752   0.05472   0.04999   0.0359  0.0271  1.0000  -6.2553   0.0000   0.2002
  13.700   1.0657   0.05702   0.05240   0.0352  0.0271  1.0000  -6.2139   0.0000   0.2004
  13.800   1.0563   0.05941   0.05489   0.0342  0.0270  1.0000  -6.1718   0.0000   0.2007
  13.900   1.0470   0.06185   0.05742   0.0332  0.0270  1.0000  -6.1296   0.0000   0.2013
  14.000   1.0378   0.06436   0.06002   0.0319  0.0270  1.0000  -6.0870   0.0000   0.2020
  14.100   1.0287   0.06695   0.06271   0.0304  0.0270  1.0000  -6.0436   0.0000   0.2029
  14.200   1.0198   0.06964   0.06548   0.0288  0.0270  1.0000  -5.9995   0.0000   0.2040
  14.300   1.0110   0.07241   0.06833   0.0270  0.0270  1.0000  -5.9542   0.0000   0.2053
  14.400   1.0023   0.07527   0.07126   0.0252  0.0270  1.0000  -5.9076   0.0000   0.2067
  14.500   0.9936   0.07820   0.07427   0.0232  0.0271  1.0000  -5.8594   0.0000   0.2083
  14.600   0.9850   0.08120   0.07734   0.0211  0.0271  1.0000  -5.8092   0.0000   0.2099
  14.700   0.9762   0.08430   0.08051   0.0190  0.0271  1.0000  -5.7561   0.0000   0.2117
  14.800   0.9674   0.08753   0.08381   0.0167  0.0272  1.0000  -5.6990   0.0000   0.2137
  14.900   0.9583   0.09093   0.08727   0.0143  0.0272  1.0000  -5.6364   0.0000   0.2158
  15.000   0.9487   0.09454   0.09094   0.0118  0.0273  1.0000  -5.5658   0.0000   0.2182
  15.100   0.9383   0.09848   0.09495   0.0090  0.0274  1.0000  -5.4822   0.0000   0.2208
  15.200   0.9259   0.10305   0.09960   0.0059  0.0276  1.0000  -5.3721   0.0000   0.2240
  15.300   0.7033   0.17248   0.16923  -0.0247  0.0468  1.0000  -2.1909   0.0000   0.2689
  15.400   0.7039   0.17450   0.17125  -0.0260  0.0467  1.0000  -2.1659   0.0000   0.2706
  15.500   0.6962   0.17806   0.17480  -0.0303  0.0452  1.0000  -2.0039   0.0000   0.2772
  15.600   0.6947   0.18032   0.17705  -0.0320  0.0438  1.0000  -1.9534   0.0000   0.2798
  15.700   0.6958   0.18206   0.17879  -0.0330  0.0429  1.0000  -1.9421   0.0000   0.2811
  15.800   0.6975   0.18362   0.18034  -0.0338  0.0421  1.0000  -1.9417   0.0000   0.2820
  15.900   0.6996   0.18504   0.18177  -0.0345  0.0413  1.0000  -1.9489   0.0000   0.2827
  16.000   0.7022   0.18634   0.18306  -0.0351  0.0407  1.0000  -1.9631   0.0000   0.2832
  16.100   0.7052   0.18751   0.18424  -0.0356  0.0400  1.0000  -1.9841   0.0000   0.2835
  16.200   0.7085   0.18856   0.18529  -0.0359  0.0395  1.0000  -2.0123   0.0000   0.2836
  16.300   0.7122   0.18951   0.18624  -0.0362  0.0390  1.0000  -2.0472   0.0000   0.2836
  16.400   0.7164   0.19038   0.18712  -0.0364  0.0385  1.0000  -2.0881   0.0000   0.2833
  16.500   0.7207   0.19124   0.18798  -0.0365  0.0382  1.0000  -2.1320   0.0000   0.2830
  16.600   0.7250   0.19221   0.18897  -0.0366  0.0379  1.0000  -2.1739   0.0000   0.2827
  16.700   0.7292   0.19321   0.18998  -0.0367  0.0377  1.0000  -2.2140   0.0000   0.2823
  16.800   0.7334   0.19422   0.19099  -0.0367  0.0375  1.0000  -2.2547   0.0000   0.2820
  16.900   0.7373   0.19531   0.19208  -0.0368  0.0372  1.0000  -2.2948   0.0000   0.2816
  17.000   0.7412   0.19653   0.19331  -0.0367  0.0370  1.0000  -2.3381   0.0000   0.2810
  17.100   0.7369   0.20113   0.19789  -0.0374  0.0364  1.0000  -2.2608   0.0000   0.2823
  17.200   0.7387   0.20299   0.19975  -0.0384  0.0363  1.0000  -2.2456   0.0000   0.2833
  17.300   0.7405   0.20483   0.20159  -0.0393  0.0363  1.0000  -2.2295   0.0000   0.2843
  17.400   0.7423   0.20665   0.20341  -0.0402  0.0363  1.0000  -2.2121   0.0000   0.2854
  17.500   0.7441   0.20845   0.20521  -0.0412  0.0363  1.0000  -2.1929   0.0000   0.2865
  17.600   0.7459   0.21022   0.20698  -0.0422  0.0362  1.0000  -2.1713   0.0000   0.2876
  17.700   0.7477   0.21196   0.20872  -0.0433  0.0361  1.0000  -2.1465   0.0000   0.2888
  17.800   0.7488   0.21371   0.21047  -0.0447  0.0360  1.0000  -2.1066   0.0000   0.2904
  17.900   0.7451   0.21584   0.21258  -0.0482  0.0352  1.0000  -1.9655   0.0000   0.2954
  18.000   0.7451   0.21810   0.21484  -0.0505  0.0331  1.0000  -1.8765   0.0000   0.2985
  18.100   0.7476   0.21965   0.21640  -0.0514  0.0321  1.0000  -1.8642   0.0000   0.2993
  18.200   0.7504   0.22108   0.21782  -0.0521  0.0313  1.0000  -1.8605   0.0000   0.2999
  18.300   0.7533   0.22243   0.21917  -0.0528  0.0307  1.0000  -1.8621   0.0000   0.3004
  18.400   0.7563   0.22372   0.22046  -0.0535  0.0302  1.0000  -1.8677   0.0000   0.3008
  18.500   0.7595   0.22495   0.22170  -0.0541  0.0297  1.0000  -1.8769   0.0000   0.3012
  18.600   0.7628   0.22615   0.22289  -0.0547  0.0293  1.0000  -1.8894   0.0000   0.3014
  18.700   0.7661   0.22731   0.22405  -0.0552  0.0290  1.0000  -1.9050   0.0000   0.3016
  18.800   0.7696   0.22844   0.22518  -0.0556  0.0287  1.0000  -1.9238   0.0000   0.3017
  18.900   0.7732   0.22954   0.22629  -0.0561  0.0285  1.0000  -1.9460   0.0000   0.3018
  19.000   0.7769   0.23064   0.22739  -0.0564  0.0282  1.0000  -1.9715   0.0000   0.3017
  19.100   0.7808   0.23174   0.22849  -0.0567  0.0280  1.0000  -2.0006   0.0000   0.3015
  19.200   0.7849   0.23287   0.22963  -0.0569  0.0278  1.0000  -2.0339   0.0000   0.3011
  19.300   0.7893   0.23408   0.23085  -0.0569  0.0276  1.0000  -2.0725   0.0000   0.3005
  19.400   0.7935   0.23553   0.23230  -0.0568  0.0274  1.0000  -2.1096   0.0000   0.2999
  19.500   0.7928   0.24009   0.23684  -0.0572  0.0269  1.0000  -2.0464   0.0000   0.3004
  19.600   0.7953   0.24182   0.23857  -0.0581  0.0269  1.0000  -2.0275   0.0000   0.3012
  19.700   0.7978   0.24352   0.24027  -0.0590  0.0269  1.0000  -2.0096   0.0000   0.3019
  19.800   0.8003   0.24519   0.24194  -0.0599  0.0269  1.0000  -1.9923   0.0000   0.3027
  19.900   0.8029   0.24684   0.24359  -0.0608  0.0269  1.0000  -1.9758   0.0000   0.3035
  20.000   0.8055   0.24846   0.24522  -0.0618  0.0268  1.0000  -1.9598   0.0000   0.3043


