xflr5 v6.32

 Calculated polar for: NACA 0012

 1 1 Reynolds number fixed          Mach number fixed         

 xtrf =   1.000 (top)        1.000 (bottom)
 Mach =   0.000     Re =     1.000 e 6     Ncrit =   9.000

  alpha     CL        CD       CDp       Cm    Top Xtr Bot Xtr   Cpmin    Chinge    XCp    
 ------- -------- --------- --------- -------- ------- ------- -------- --------- ---------
 -15.000  -1.3118   0.03837   0.03420  -0.0320  1.0000  0.0121  -9.1266   0.0000   0.2065
 -14.900  -1.3113   0.03732   0.03310  -0.0321  1.0000  0.0121  -9.0742   0.0000   0.2066
 -14.800  -1.3136   0.03602   0.03174  -0.0322  1.0000  0.0122  -9.0457   0.0000   0.2068
 -14.700  -1.3212   0.03424   0.02986  -0.0320  1.0000  0.0123  -9.0635   0.0000   0.2073
 -14.600  -1.3283   0.03261   0.02815  -0.0317  1.0000  0.0124  -9.0756   0.0000   0.2079
 -14.500  -1.3347   0.03113   0.02657  -0.0311  1.0000  0.0125  -9.0813   0.0000   0.2086
 -14.400  -1.3403   0.02979   0.02513  -0.0304  1.0000  0.0126  -9.0798   0.0000   0.2095
 -14.300  -1.3452   0.02859   0.02385  -0.0296  1.0000  0.0128  -9.0709   0.0000   0.2104
 -14.200  -1.3491   0.02753   0.02271  -0.0286  1.0000  0.0130  -9.0536   0.0000   0.2114
 -14.100  -1.3518   0.02659   0.02171  -0.0276  1.0000  0.0132  -9.0262   0.0000   0.2124
 -14.000  -1.3532   0.02579   0.02084  -0.0265  1.0000  0.0134  -8.9883   0.0000   0.2133
 -13.900  -1.3533   0.02511   0.02011  -0.0255  1.0000  0.0137  -8.9392   0.0000   0.2143
 -13.800  -1.3521   0.02453   0.01949  -0.0245  1.0000  0.0140  -8.8792   0.0000   0.2152
 -13.700  -1.3498   0.02404   0.01897  -0.0236  1.0000  0.0142  -8.8097   0.0000   0.2160
 -13.600  -1.3466   0.02361   0.01852  -0.0227  1.0000  0.0145  -8.7331   0.0000   0.2168
 -13.500  -1.3427   0.02324   0.01813  -0.0219  1.0000  0.0147  -8.6508   0.0000   0.2175
 -13.400  -1.3383   0.02291   0.01778  -0.0211  1.0000  0.0149  -8.5647   0.0000   0.2182
 -13.300  -1.3335   0.02260   0.01746  -0.0203  1.0000  0.0151  -8.4761   0.0000   0.2189
 -13.200  -1.3285   0.02232   0.01716  -0.0195  1.0000  0.0153  -8.3856   0.0000   0.2196
 -13.100  -1.3230   0.02205   0.01687  -0.0188  1.0000  0.0155  -8.2930   0.0000   0.2203
 -13.000  -1.3170   0.02180   0.01660  -0.0181  1.0000  0.0158  -8.1971   0.0000   0.2209
 -12.900  -1.3103   0.02154   0.01633  -0.0176  1.0000  0.0160  -8.0978   0.0000   0.2214
 -12.800  -1.3035   0.02129   0.01606  -0.0171  1.0000  0.0162  -7.9975   0.0000   0.2218
 -12.700  -1.2964   0.02105   0.01578  -0.0166  1.0000  0.0164  -7.8967   0.0000   0.2223
 -12.600  -1.2891   0.02081   0.01553  -0.0161  1.0000  0.0166  -7.7953   0.0000   0.2227
 -12.500  -1.2816   0.02059   0.01530  -0.0157  1.0000  0.0168  -7.6925   0.0000   0.2232
 -12.400  -1.2739   0.02039   0.01507  -0.0153  1.0000  0.0171  -7.5889   0.0000   0.2236
 -12.300  -1.2660   0.02019   0.01486  -0.0149  1.0000  0.0173  -7.4845   0.0000   0.2240
 -12.200  -1.2579   0.01999   0.01465  -0.0145  1.0000  0.0175  -7.3796   0.0000   0.2243
 -12.100  -1.2497   0.01981   0.01445  -0.0142  1.0000  0.0177  -7.2744   0.0000   0.2247
 -12.000  -1.2414   0.01964   0.01426  -0.0138  1.0000  0.0179  -7.1717   0.0000   0.2250
 -11.900  -1.2329   0.01947   0.01408  -0.0135  1.0000  0.0181  -7.0799   0.0000   0.2254
 -11.800  -1.2244   0.01930   0.01390  -0.0132  1.0000  0.0182  -6.9881   0.0000   0.2257
 -11.700  -1.2158   0.01914   0.01372  -0.0129  1.0000  0.0183  -6.8965   0.0000   0.2260
 -11.600  -1.2071   0.01898   0.01355  -0.0126  1.0000  0.0184  -6.8054   0.0000   0.2264
 -11.500  -1.1985   0.01881   0.01336  -0.0122  1.0000  0.0185  -6.7152   0.0000   0.2267
 -11.400  -1.1899   0.01864   0.01318  -0.0119  1.0000  0.0186  -6.6264   0.0000   0.2271
 -11.300  -1.1813   0.01846   0.01299  -0.0116  1.0000  0.0187  -6.5380   0.0000   0.2274
 -11.200  -1.1727   0.01829   0.01280  -0.0113  1.0000  0.0187  -6.4497   0.0000   0.2278
 -11.100  -1.1640   0.01813   0.01262  -0.0109  1.0000  0.0188  -6.3616   0.0000   0.2281
 -11.000  -1.1552   0.01796   0.01244  -0.0106  1.0000  0.0188  -6.2737   0.0000   0.2285
 -10.900  -1.1505   0.01741   0.01182  -0.0097  1.0000  0.0192  -6.2233   0.0000   0.2293
 -10.800  -1.1451   0.01692   0.01125  -0.0089  1.0000  0.0197  -6.1678   0.0000   0.2302
 -10.700  -1.1388   0.01651   0.01080  -0.0082  1.0000  0.0202  -6.1051   0.0000   0.2309
 -10.600  -1.1316   0.01618   0.01043  -0.0076  1.0000  0.0207  -6.0363   0.0000   0.2315
 -10.500  -1.1239   0.01590   0.01013  -0.0071  1.0000  0.0213  -5.9623   0.0000   0.2320
 -10.400  -1.1158   0.01566   0.00988  -0.0066  1.0000  0.0218  -5.8841   0.0000   0.2325
 -10.300  -1.1074   0.01545   0.00967  -0.0062  1.0000  0.0223  -5.8033   0.0000   0.2330
 -10.200  -1.0988   0.01526   0.00947  -0.0058  1.0000  0.0228  -5.7212   0.0000   0.2334
 -10.100  -1.0901   0.01508   0.00929  -0.0055  1.0000  0.0232  -5.6386   0.0000   0.2338
 -10.000  -1.0814   0.01491   0.00912  -0.0051  1.0000  0.0237  -5.5558   0.0000   0.2343
  -9.900  -1.0725   0.01476   0.00896  -0.0047  1.0000  0.0242  -5.4730   0.0000   0.2347
  -9.800  -1.0636   0.01461   0.00880  -0.0043  1.0000  0.0246  -5.3903   0.0000   0.2352
  -9.700  -1.0548   0.01447   0.00865  -0.0040  1.0000  0.0251  -5.3080   0.0000   0.2356
  -9.600  -1.0459   0.01433   0.00850  -0.0036  1.0000  0.0255  -5.2260   0.0000   0.2361
  -9.500  -1.0370   0.01420   0.00836  -0.0032  1.0000  0.0258  -5.1441   0.0000   0.2365
  -9.400  -1.0281   0.01409   0.00823  -0.0028  1.0000  0.0262  -5.0622   0.0000   0.2370
  -9.300  -1.0191   0.01398   0.00811  -0.0024  1.0000  0.0264  -4.9804   0.0000   0.2375
  -9.200  -1.0101   0.01387   0.00800  -0.0020  1.0000  0.0266  -4.8987   0.0000   0.2380
  -9.100  -1.0011   0.01378   0.00789  -0.0016  1.0000  0.0268  -4.8171   0.0000   0.2384
  -9.000  -0.9921   0.01369   0.00780  -0.0013  1.0000  0.0269  -4.7359   0.0000   0.2389
  -8.900  -0.9852   0.01338   0.00745  -0.0005  1.0000  0.0280  -4.6746   0.0000   0.2398
  -8.800  -0.9778   0.01314   0.00718   0.0002  1.0000  0.0293  -4.6087   0.0000   0.2406
  -8.700  -0.9698   0.01295   0.00699   0.0007  1.0000  0.0304  -4.5368   0.0000   0.2413
  -8.600  -0.9615   0.01279   0.00684   0.0013  1.0000  0.0313  -4.4625   0.0000   0.2420
  -8.500  -0.9532   0.01265   0.00671   0.0018  1.0000  0.0321  -4.3875   0.0000   0.2426
  -8.400  -0.9448   0.01252   0.00658   0.0023  1.0000  0.0329  -4.3125   0.0000   0.2433
  -8.300  -0.9363   0.01240   0.00646   0.0028  1.0000  0.0337  -4.2376   0.0000   0.2440
  -8.200  -0.9277   0.01229   0.00634   0.0033  1.0000  0.0344  -4.1629   0.0000   0.2446
  -8.100  -0.9191   0.01219   0.00624   0.0037  1.0000  0.0351  -4.0882   0.0000   0.2453
  -8.000  -0.9104   0.01210   0.00614   0.0042  1.0000  0.0356  -4.0132   0.0000   0.2460
  -7.900  -0.9016   0.01203   0.00606   0.0047  1.0000  0.0361  -3.9380   0.0000   0.2466
  -7.800  -0.8928   0.01197   0.00599   0.0051  1.0000  0.0364  -3.8627   0.0000   0.2473
  -7.700  -0.8853   0.01176   0.00578   0.0058  1.0000  0.0385  -3.7986   0.0000   0.2482
  -7.600  -0.8774   0.01159   0.00563   0.0064  1.0000  0.0406  -3.7310   0.0000   0.2491
  -7.500  -0.8692   0.01146   0.00551   0.0070  1.0000  0.0421  -3.6614   0.0000   0.2499
  -7.400  -0.8609   0.01134   0.00541   0.0075  1.0000  0.0435  -3.5913   0.0000   0.2507
  -7.300  -0.8525   0.01124   0.00531   0.0080  1.0000  0.0447  -3.5212   0.0000   0.2514
  -7.200  -0.8440   0.01115   0.00522   0.0085  1.0000  0.0458  -3.4511   0.0000   0.2522
  -7.100  -0.8353   0.01108   0.00513   0.0090  1.0000  0.0466  -3.3808   0.0000   0.2530
  -7.000  -0.8265   0.01102   0.00506   0.0094  1.0000  0.0471  -3.3103   0.0000   0.2538
  -6.900  -0.8170   0.01085   0.00489   0.0097  0.9999  0.0502  -3.2383   0.0000   0.2543
  -6.800  -0.8036   0.01069   0.00476   0.0091  0.9993  0.0533  -3.1548   0.0000   0.2539
  -6.700  -0.7901   0.01056   0.00465   0.0085  0.9987  0.0558  -3.0725   0.0000   0.2534
  -6.600  -0.7763   0.01046   0.00455   0.0079  0.9980  0.0578  -3.0010   0.0000   0.2529
  -6.500  -0.7624   0.01038   0.00447   0.0073  0.9974  0.0592  -2.9293   0.0000   0.2524
  -6.400  -0.7488   0.01022   0.00434   0.0067  0.9967  0.0638  -2.8609   0.0000   0.2518
  -6.300  -0.7352   0.01008   0.00424   0.0061  0.9960  0.0676  -2.7917   0.0000   0.2512
  -6.200  -0.7213   0.00997   0.00414   0.0054  0.9953  0.0708  -2.7219   0.0000   0.2506
  -6.100  -0.7071   0.00988   0.00405   0.0047  0.9947  0.0736  -2.6522   0.0000   0.2498
  -6.000  -0.6932   0.00973   0.00395   0.0041  0.9940  0.0794  -2.5843   0.0000   0.2491
  -5.900  -0.6792   0.00960   0.00385   0.0034  0.9935  0.0842  -2.5160   0.0000   0.2483
  -5.800  -0.6649   0.00950   0.00377   0.0027  0.9930  0.0888  -2.4476   0.0000   0.2473
  -5.700  -0.6520   0.00934   0.00367   0.0022  0.9921  0.0960  -2.3834   0.0000   0.2468
  -5.600  -0.6391   0.00923   0.00358   0.0018  0.9908  0.1014  -2.3199   0.0000   0.2463
  -5.500  -0.6261   0.00910   0.00348   0.0013  0.9897  0.1082  -2.2565   0.0000   0.2457
  -5.400  -0.6129   0.00897   0.00340   0.0008  0.9885  0.1151  -2.1928   0.0000   0.2450
  -5.200  -0.5855   0.00872   0.00320  -0.0004  0.9863  0.1296  -2.0641   0.0000   0.2431
  -5.100  -0.5716   0.00861   0.00313  -0.0010  0.9854  0.1365  -2.0008   0.0000   0.2420
  -5.000  -0.5577   0.00847   0.00304  -0.0017  0.9845  0.1458  -1.9384   0.0000   0.2409
  -4.900  -0.5435   0.00836   0.00296  -0.0024  0.9837  0.1542  -1.8756   0.0000   0.2395
  -4.800  -0.5293   0.00822   0.00288  -0.0031  0.9829  0.1643  -1.8137   0.0000   0.2381
  -4.700  -0.5153   0.00810   0.00280  -0.0038  0.9819  0.1748  -1.7579   0.0000   0.2367
  -4.600  -0.5015   0.00795   0.00272  -0.0044  0.9810  0.1870  -1.7072   0.0000   0.2353
  -4.500  -0.4876   0.00784   0.00265  -0.0050  0.9800  0.1972  -1.6563   0.0000   0.2338
  -4.400  -0.4771   0.00771   0.00258  -0.0049  0.9771  0.2085  -1.6128   0.0000   0.2339
  -4.300  -0.4654   0.00761   0.00252  -0.0050  0.9744  0.2176  -1.5673   0.0000   0.2335
  -4.200  -0.4536   0.00750   0.00245  -0.0052  0.9718  0.2281  -1.5217   0.0000   0.2329
  -4.100  -0.4414   0.00739   0.00239  -0.0054  0.9694  0.2383  -1.4760   0.0000   0.2321
  -4.000  -0.4290   0.00729   0.00232  -0.0057  0.9671  0.2492  -1.4300   0.0000   0.2312
  -3.900  -0.4164   0.00717   0.00226  -0.0060  0.9649  0.2618  -1.3842   0.0000   0.2301
  -3.800  -0.4051   0.00706   0.00220  -0.0060  0.9620  0.2738  -1.3411   0.0000   0.2296
  -3.700  -0.3952   0.00697   0.00214  -0.0057  0.9578  0.2854  -1.2998   0.0000   0.2301
  -3.600  -0.3845   0.00688   0.00209  -0.0056  0.9538  0.2957  -1.2586   0.0000   0.2301
  -3.500  -0.3735   0.00678   0.00203  -0.0055  0.9501  0.3069  -1.2203   0.0000   0.2298
  -3.300  -0.3516   0.00661   0.00193  -0.0053  0.9425  0.3287  -1.1503   0.0000   0.2295
  -3.200  -0.3412   0.00654   0.00189  -0.0051  0.9377  0.3396  -1.1166   0.0000   0.2297
  -3.100  -0.3309   0.00644   0.00184  -0.0049  0.9327  0.3519  -1.0832   0.0000   0.2299
  -3.000  -0.3202   0.00637   0.00180  -0.0047  0.9278  0.3629  -1.0496   0.0000   0.2300
  -2.900  -0.3095   0.00632   0.00175  -0.0046  0.9230  0.3724  -1.0161   0.0000   0.2301
  -2.800  -0.2991   0.00623   0.00172  -0.0044  0.9178  0.3846  -0.9834   0.0000   0.2303
  -2.700  -0.2884   0.00618   0.00168  -0.0042  0.9120  0.3945  -0.9513   0.0000   0.2303
  -2.600  -0.2782   0.00609   0.00164  -0.0040  0.9060  0.4073  -0.9234   0.0000   0.2307
  -2.500  -0.2676   0.00605   0.00160  -0.0038  0.9002  0.4179  -0.8953   0.0000   0.2309
  -2.400  -0.2568   0.00599   0.00157  -0.0036  0.8942  0.4282  -0.8673   0.0000   0.2308
  -2.300  -0.2463   0.00592   0.00154  -0.0035  0.8874  0.4404  -0.8397   0.0000   0.2310
  -2.200  -0.2356   0.00589   0.00150  -0.0033  0.8805  0.4500  -0.8121   0.0000   0.2312
  -2.100  -0.2252   0.00582   0.00147  -0.0031  0.8741  0.4621  -0.7867   0.0000   0.2314
  -2.000  -0.2144   0.00577   0.00144  -0.0030  0.8669  0.4733  -0.7627   0.0000   0.2314
  -1.900  -0.2037   0.00574   0.00142  -0.0028  0.8590  0.4832  -0.7389   0.0000   0.2315
  -1.700  -0.1823   0.00566   0.00135  -0.0025  0.8443  0.5054  -0.6920   0.0000   0.2317
  -1.600  -0.1717   0.00561   0.00133  -0.0023  0.8359  0.5167  -0.6713   0.0000   0.2318
  -1.500  -0.1612   0.00559   0.00130  -0.0021  0.8271  0.5281  -0.6510   0.0000   0.2323
  -1.300  -0.1396   0.00552   0.00127  -0.0018  0.8108  0.5494  -0.6107   0.0000   0.2321
  -1.200  -0.1290   0.00551   0.00125  -0.0017  0.8015  0.5603  -0.5927   0.0000   0.2324
  -1.100  -0.1181   0.00549   0.00123  -0.0016  0.7931  0.5700  -0.5745   0.0000   0.2322
  -1.000  -0.1075   0.00545   0.00122  -0.0014  0.7838  0.5817  -0.5568   0.0000   0.2323
  -0.900  -0.0967   0.00545   0.00120  -0.0012  0.7740  0.5920  -0.5407   0.0000   0.2325
  -0.800  -0.0860   0.00543   0.00119  -0.0011  0.7654  0.6024  -0.5246   0.0000   0.2325
  -0.700  -0.0752   0.00540   0.00118  -0.0010  0.7559  0.6137  -0.5087   0.0000   0.2324
  -0.600  -0.0645   0.00541   0.00117  -0.0008  0.7453  0.6232  -0.4942   0.0000   0.2326
  -0.500  -0.0538   0.00538   0.00116  -0.0007  0.7364  0.6343  -0.4799   0.0000   0.2328
  -0.400  -0.0430   0.00537   0.00116  -0.0006  0.7266  0.6453  -0.4655   0.0000   0.2324
  -0.300  -0.0322   0.00539   0.00115  -0.0004  0.7158  0.6541  -0.4524   0.0000   0.2323
  -0.200  -0.0216   0.00536   0.00115  -0.0003  0.7066  0.6655  -0.4395   0.0000   0.2331
  -0.100  -0.0107   0.00536   0.00115  -0.0001  0.6963  0.6763  -0.4265   0.0000   0.2320
   0.000  -0.0000   0.00538   0.00114   0.0000  0.6853  0.6853  -0.4147   0.0000   0.4591
   0.100   0.0107   0.00536   0.00115   0.0001  0.6763  0.6963  -0.4265   0.0000   0.2320
   0.200   0.0216   0.00536   0.00115   0.0003  0.6654  0.7066  -0.4395   0.0000   0.2331
   0.300   0.0322   0.00539   0.00115   0.0004  0.6541  0.7158  -0.4524   0.0000   0.2323
   0.400   0.0430   0.00537   0.00116   0.0006  0.6453  0.7266  -0.4655   0.0000   0.2324
   0.500   0.0538   0.00538   0.00116   0.0007  0.6342  0.7364  -0.4799   0.0000   0.2328
   0.600   0.0645   0.00541   0.00117   0.0008  0.6232  0.7452  -0.4942   0.0000   0.2326
   0.700   0.0752   0.00540   0.00118   0.0010  0.6137  0.7559  -0.5087   0.0000   0.2324
   0.800   0.0860   0.00543   0.00119   0.0011  0.6024  0.7654  -0.5246   0.0000   0.2325
   0.900   0.0967   0.00545   0.00120   0.0012  0.5920  0.7740  -0.5407   0.0000   0.2325
   1.000   0.1075   0.00545   0.00122   0.0014  0.5817  0.7838  -0.5568   0.0000   0.2323
   1.100   0.1181   0.00549   0.00123   0.0016  0.5700  0.7931  -0.5745   0.0000   0.2322
   1.200   0.1290   0.00550   0.00125   0.0017  0.5603  0.8014  -0.5927   0.0000   0.2324
   1.300   0.1396   0.00552   0.00127   0.0018  0.5494  0.8108  -0.6107   0.0000   0.2321
   1.400   0.1502   0.00557   0.00129   0.0020  0.5371  0.8195  -0.6302   0.0000   0.2319
   1.500   0.1612   0.00559   0.00130   0.0021  0.5281  0.8271  -0.6510   0.0000   0.2323
   1.600   0.1717   0.00561   0.00133   0.0023  0.5167  0.8359  -0.6714   0.0000   0.2318
   1.700   0.1823   0.00566   0.00135   0.0025  0.5054  0.8443  -0.6920   0.0000   0.2317
   1.900   0.2037   0.00574   0.00142   0.0028  0.4832  0.8590  -0.7389   0.0000   0.2315
   2.000   0.2144   0.00577   0.00144   0.0030  0.4733  0.8669  -0.7627   0.0000   0.2314
   2.100   0.2252   0.00582   0.00147   0.0031  0.4621  0.8741  -0.7867   0.0000   0.2314
   2.200   0.2357   0.00589   0.00150   0.0033  0.4500  0.8805  -0.8121   0.0000   0.2312
   2.300   0.2463   0.00592   0.00154   0.0035  0.4404  0.8874  -0.8398   0.0000   0.2310
   2.400   0.2568   0.00599   0.00157   0.0036  0.4282  0.8942  -0.8673   0.0000   0.2308
   2.500   0.2676   0.00605   0.00160   0.0038  0.4180  0.9002  -0.8953   0.0000   0.2309
   2.600   0.2782   0.00609   0.00164   0.0040  0.4073  0.9060  -0.9234   0.0000   0.2307
   2.700   0.2885   0.00618   0.00168   0.0042  0.3945  0.9120  -0.9513   0.0000   0.2303
   2.800   0.2991   0.00623   0.00172   0.0044  0.3846  0.9178  -0.9834   0.0000   0.2303
   2.900   0.3095   0.00632   0.00175   0.0046  0.3724  0.9230  -1.0161   0.0000   0.2301
   3.000   0.3202   0.00637   0.00180   0.0047  0.3629  0.9278  -1.0496   0.0000   0.2300
   3.100   0.3309   0.00644   0.00184   0.0049  0.3519  0.9327  -1.0832   0.0000   0.2299
   3.200   0.3412   0.00654   0.00189   0.0051  0.3396  0.9377  -1.1166   0.0000   0.2297
   3.300   0.3516   0.00661   0.00193   0.0053  0.3287  0.9425  -1.1503   0.0000   0.2295
   3.500   0.3735   0.00678   0.00203   0.0055  0.3069  0.9500  -1.2203   0.0000   0.2299
   3.600   0.3845   0.00688   0.00209   0.0056  0.2956  0.9538  -1.2587   0.0000   0.2301
   3.700   0.3952   0.00697   0.00214   0.0057  0.2854  0.9578  -1.2998   0.0000   0.2301
   3.800   0.4051   0.00706   0.00220   0.0060  0.2738  0.9620  -1.3411   0.0000   0.2297
   3.900   0.4164   0.00717   0.00226   0.0060  0.2618  0.9649  -1.3842   0.0000   0.2301
   4.000   0.4290   0.00729   0.00232   0.0057  0.2492  0.9671  -1.4301   0.0000   0.2312
   4.100   0.4415   0.00739   0.00239   0.0054  0.2383  0.9694  -1.4760   0.0000   0.2321
   4.200   0.4536   0.00750   0.00245   0.0052  0.2281  0.9718  -1.5218   0.0000   0.2329
   4.300   0.4654   0.00761   0.00252   0.0050  0.2176  0.9744  -1.5673   0.0000   0.2335
   4.400   0.4771   0.00771   0.00258   0.0049  0.2085  0.9771  -1.6128   0.0000   0.2339
   4.500   0.4876   0.00784   0.00265   0.0050  0.1972  0.9800  -1.6563   0.0000   0.2338
   4.600   0.5016   0.00795   0.00272   0.0044  0.1870  0.9810  -1.7073   0.0000   0.2353
   4.700   0.5153   0.00810   0.00280   0.0038  0.1748  0.9819  -1.7580   0.0000   0.2367
   4.800   0.5293   0.00822   0.00288   0.0031  0.1643  0.9829  -1.8137   0.0000   0.2381
   4.900   0.5435   0.00836   0.00296   0.0024  0.1542  0.9837  -1.8757   0.0000   0.2396
   5.000   0.5577   0.00847   0.00304   0.0017  0.1458  0.9845  -1.9384   0.0000   0.2409
   5.100   0.5716   0.00861   0.00313   0.0010  0.1365  0.9854  -2.0009   0.0000   0.2421
   5.200   0.5856   0.00872   0.00320   0.0004  0.1296  0.9864  -2.0642   0.0000   0.2431
   5.300   0.5992   0.00887   0.00329  -0.0002  0.1207  0.9874  -2.1270   0.0000   0.2441
   5.400   0.6129   0.00897   0.00339  -0.0008  0.1151  0.9885  -2.1929   0.0000   0.2450
   5.500   0.6261   0.00910   0.00348  -0.0013  0.1082  0.9897  -2.2565   0.0000   0.2457
   5.600   0.6391   0.00923   0.00358  -0.0018  0.1014  0.9909  -2.3199   0.0000   0.2463
   5.700   0.6520   0.00934   0.00367  -0.0022  0.0960  0.9921  -2.3835   0.0000   0.2468
   5.800   0.6650   0.00950   0.00377  -0.0027  0.0887  0.9930  -2.4478   0.0000   0.2474
   5.900   0.6793   0.00960   0.00385  -0.0034  0.0842  0.9935  -2.5162   0.0000   0.2483
   6.000   0.6933   0.00973   0.00395  -0.0041  0.0794  0.9941  -2.5844   0.0000   0.2491
   6.100   0.7072   0.00988   0.00405  -0.0048  0.0736  0.9947  -2.6524   0.0000   0.2498
   6.200   0.7213   0.00997   0.00414  -0.0054  0.0708  0.9953  -2.7221   0.0000   0.2506
   6.300   0.7353   0.01008   0.00423  -0.0061  0.0676  0.9960  -2.7919   0.0000   0.2513
   6.400   0.7489   0.01022   0.00434  -0.0067  0.0638  0.9967  -2.8610   0.0000   0.2519
   6.500   0.7624   0.01038   0.00447  -0.0073  0.0592  0.9974  -2.9295   0.0000   0.2524
   6.600   0.7764   0.01045   0.00455  -0.0079  0.0578  0.9981  -3.0012   0.0000   0.2529
   6.700   0.7901   0.01056   0.00465  -0.0086  0.0557  0.9987  -3.0727   0.0000   0.2535
   6.800   0.8037   0.01069   0.00476  -0.0091  0.0533  0.9993  -3.1551   0.0000   0.2539
   6.900   0.8170   0.01085   0.00489  -0.0097  0.0501  0.9999  -3.2385   0.0000   0.2543
   7.000   0.8264   0.01101   0.00506  -0.0094  0.0471  1.0000  -3.3097   0.0000   0.2537
   7.100   0.8351   0.01108   0.00513  -0.0089  0.0466  1.0000  -3.3802   0.0000   0.2530
   7.200   0.8438   0.01115   0.00521  -0.0085  0.0458  1.0000  -3.4505   0.0000   0.2522
   7.300   0.8523   0.01124   0.00531  -0.0080  0.0447  1.0000  -3.5206   0.0000   0.2514
   7.400   0.8608   0.01134   0.00540  -0.0074  0.0435  1.0000  -3.5907   0.0000   0.2506
   7.500   0.8691   0.01146   0.00551  -0.0069  0.0421  1.0000  -3.6608   0.0000   0.2498
   7.600   0.8772   0.01159   0.00562  -0.0064  0.0406  1.0000  -3.7305   0.0000   0.2490
   7.700   0.8851   0.01176   0.00577  -0.0058  0.0385  1.0000  -3.7981   0.0000   0.2482
   7.800   0.8926   0.01196   0.00599  -0.0051  0.0364  1.0000  -3.8622   0.0000   0.2472
   7.900   0.9015   0.01203   0.00606  -0.0046  0.0361  1.0000  -3.9375   0.0000   0.2466
   8.000   0.9103   0.01210   0.00614  -0.0042  0.0356  1.0000  -4.0127   0.0000   0.2459
   8.100   0.9190   0.01219   0.00624  -0.0037  0.0351  1.0000  -4.0877   0.0000   0.2453
   8.200   0.9276   0.01229   0.00634  -0.0032  0.0344  1.0000  -4.1624   0.0000   0.2446
   8.300   0.9361   0.01240   0.00646  -0.0027  0.0337  1.0000  -4.2372   0.0000   0.2439
   8.400   0.9446   0.01252   0.00658  -0.0023  0.0329  1.0000  -4.3121   0.0000   0.2433
   8.500   0.9531   0.01265   0.00670  -0.0018  0.0321  1.0000  -4.3871   0.0000   0.2426
   8.600   0.9614   0.01279   0.00684  -0.0012  0.0313  1.0000  -4.4621   0.0000   0.2420
   8.700   0.9697   0.01295   0.00699  -0.0007  0.0304  1.0000  -4.5364   0.0000   0.2413
   8.800   0.9777   0.01313   0.00717  -0.0001  0.0293  1.0000  -4.6085   0.0000   0.2406
   8.900   0.9852   0.01338   0.00745   0.0005  0.0280  1.0000  -4.6744   0.0000   0.2398
   9.000   0.9920   0.01368   0.00779   0.0013  0.0269  1.0000  -4.7357   0.0000   0.2389
   9.100   1.0011   0.01378   0.00789   0.0017  0.0268  1.0000  -4.8169   0.0000   0.2384
   9.200   1.0101   0.01387   0.00800   0.0020  0.0266  1.0000  -4.8985   0.0000   0.2379
   9.300   1.0191   0.01397   0.00811   0.0024  0.0264  1.0000  -4.9802   0.0000   0.2375
   9.400   1.0280   0.01408   0.00823   0.0028  0.0262  1.0000  -5.0621   0.0000   0.2370
   9.500   1.0370   0.01420   0.00836   0.0032  0.0258  1.0000  -5.1440   0.0000   0.2365
   9.600   1.0459   0.01433   0.00850   0.0036  0.0255  1.0000  -5.2260   0.0000   0.2361
   9.700   1.0548   0.01447   0.00864   0.0040  0.0251  1.0000  -5.3081   0.0000   0.2356
   9.800   1.0637   0.01461   0.00880   0.0043  0.0246  1.0000  -5.3904   0.0000   0.2352
   9.900   1.0726   0.01476   0.00895   0.0047  0.0242  1.0000  -5.4732   0.0000   0.2347
  10.000   1.0814   0.01491   0.00912   0.0051  0.0237  1.0000  -5.5561   0.0000   0.2343
  10.100   1.0902   0.01508   0.00929   0.0054  0.0232  1.0000  -5.6389   0.0000   0.2339
  10.200   1.0989   0.01526   0.00947   0.0058  0.0228  1.0000  -5.7216   0.0000   0.2334
  10.300   1.1075   0.01545   0.00967   0.0062  0.0223  1.0000  -5.8037   0.0000   0.2330
  10.400   1.1159   0.01566   0.00988   0.0066  0.0218  1.0000  -5.8846   0.0000   0.2325
  10.500   1.1240   0.01590   0.01013   0.0071  0.0213  1.0000  -5.9628   0.0000   0.2320
  10.600   1.1318   0.01618   0.01043   0.0076  0.0207  1.0000  -6.0369   0.0000   0.2315
  10.700   1.1389   0.01652   0.01080   0.0082  0.0202  1.0000  -6.1057   0.0000   0.2309
  10.800   1.1453   0.01692   0.01125   0.0088  0.0197  1.0000  -6.1684   0.0000   0.2302
  10.900   1.1507   0.01741   0.01182   0.0097  0.0192  1.0000  -6.2239   0.0000   0.2294
  11.000   1.1555   0.01796   0.01244   0.0106  0.0188  1.0000  -6.2748   0.0000   0.2285
  11.100   1.1642   0.01812   0.01262   0.0109  0.0188  1.0000  -6.3628   0.0000   0.2282
  11.200   1.1729   0.01829   0.01280   0.0112  0.0187  1.0000  -6.4510   0.0000   0.2278
  11.300   1.1816   0.01846   0.01298   0.0115  0.0187  1.0000  -6.5394   0.0000   0.2275
  11.400   1.1902   0.01864   0.01317   0.0119  0.0186  1.0000  -6.6278   0.0000   0.2271
  11.500   1.1988   0.01881   0.01336   0.0122  0.0185  1.0000  -6.7167   0.0000   0.2268
  11.600   1.2075   0.01898   0.01354   0.0125  0.0184  1.0000  -6.8070   0.0000   0.2264
  11.700   1.2161   0.01914   0.01372   0.0128  0.0183  1.0000  -6.8982   0.0000   0.2261
  11.800   1.2248   0.01930   0.01390   0.0131  0.0182  1.0000  -6.9899   0.0000   0.2258
  11.900   1.2333   0.01947   0.01408   0.0134  0.0181  1.0000  -7.0819   0.0000   0.2254
  12.000   1.2418   0.01963   0.01426   0.0138  0.0179  1.0000  -7.1737   0.0000   0.2251
  12.100   1.2502   0.01981   0.01445   0.0141  0.0177  1.0000  -7.2768   0.0000   0.2248
  12.200   1.2584   0.01999   0.01465   0.0144  0.0175  1.0000  -7.3822   0.0000   0.2244
  12.300   1.2665   0.02018   0.01485   0.0148  0.0173  1.0000  -7.4872   0.0000   0.2240
  12.400   1.2744   0.02038   0.01507   0.0152  0.0171  1.0000  -7.5917   0.0000   0.2237
  12.500   1.2821   0.02059   0.01530   0.0156  0.0168  1.0000  -7.6955   0.0000   0.2233
  12.600   1.2897   0.02081   0.01553   0.0160  0.0166  1.0000  -7.7984   0.0000   0.2228
  12.700   1.2970   0.02105   0.01578   0.0165  0.0164  1.0000  -7.9000   0.0000   0.2224
  12.800   1.3041   0.02129   0.01606   0.0170  0.0162  1.0000  -8.0010   0.0000   0.2219
  12.900   1.3110   0.02154   0.01633   0.0175  0.0160  1.0000  -8.1015   0.0000   0.2215
  13.000   1.3177   0.02180   0.01660   0.0180  0.0158  1.0000  -8.2011   0.0000   0.2210
  13.100   1.3238   0.02205   0.01687   0.0186  0.0155  1.0000  -8.2976   0.0000   0.2204
  13.200   1.3293   0.02232   0.01716   0.0193  0.0153  1.0000  -8.3907   0.0000   0.2198
  13.300   1.3344   0.02261   0.01746   0.0201  0.0151  1.0000  -8.4814   0.0000   0.2191
  13.400   1.3392   0.02291   0.01778   0.0209  0.0149  1.0000  -8.5702   0.0000   0.2184
  13.500   1.3437   0.02325   0.01813   0.0217  0.0147  1.0000  -8.6565   0.0000   0.2177
  13.600   1.3476   0.02362   0.01852   0.0225  0.0144  1.0000  -8.7389   0.0000   0.2169
  13.700   1.3508   0.02404   0.01897   0.0234  0.0142  1.0000  -8.8154   0.0000   0.2162
  13.800   1.3531   0.02454   0.01950   0.0243  0.0139  1.0000  -8.8848   0.0000   0.2153
  13.900   1.3543   0.02512   0.02012   0.0253  0.0137  1.0000  -8.9444   0.0000   0.2144
  14.000   1.3542   0.02581   0.02086   0.0263  0.0134  1.0000  -8.9931   0.0000   0.2135
  14.100   1.3527   0.02662   0.02173   0.0274  0.0132  1.0000  -9.0306   0.0000   0.2125
  14.200   1.3500   0.02756   0.02275   0.0284  0.0130  1.0000  -9.0574   0.0000   0.2115
  14.300   1.3460   0.02863   0.02389   0.0294  0.0128  1.0000  -9.0743   0.0000   0.2106
  14.400   1.3411   0.02984   0.02519   0.0302  0.0126  1.0000  -9.0827   0.0000   0.2096
  14.500   1.3355   0.03120   0.02664   0.0309  0.0125  1.0000  -9.0836   0.0000   0.2088
  14.600   1.3290   0.03269   0.02823   0.0314  0.0123  1.0000  -9.0773   0.0000   0.2081
  14.700   1.3219   0.03433   0.02996   0.0318  0.0122  1.0000  -9.0646   0.0000   0.2075
  14.800   1.3143   0.03612   0.03186   0.0319  0.0122  1.0000  -9.0462   0.0000   0.2070
  14.900   1.3137   0.03726   0.03304   0.0318  0.0121  1.0000  -9.0888   0.0000   0.2069
  15.000   1.3142   0.03830   0.03413   0.0316  0.0121  1.0000  -9.1419   0.0000   0.2068
  15.100   1.3147   0.03939   0.03525   0.0315  0.0121  1.0000  -9.1938   0.0000   0.2067
  15.200   1.3146   0.04056   0.03648   0.0312  0.0121  1.0000  -9.2407   0.0000   0.2067
  15.300   1.3143   0.04178   0.03773   0.0309  0.0121  1.0000  -9.2855   0.0000   0.2067
  15.400   1.3134   0.04309   0.03909   0.0304  0.0121  1.0000  -9.3255   0.0000   0.2068
  15.500   1.3124   0.04447   0.04052   0.0300  0.0121  1.0000  -9.3630   0.0000   0.2069
  15.600   1.3110   0.04591   0.04201   0.0294  0.0121  1.0000  -9.3976   0.0000   0.2071
  15.700   1.3091   0.04748   0.04363   0.0288  0.0121  1.0000  -9.4265   0.0000   0.2073
  15.800   1.3071   0.04908   0.04528   0.0281  0.0120  1.0000  -9.4539   0.0000   0.2076
  15.900   1.3044   0.05083   0.04708   0.0272  0.0120  1.0000  -9.4741   0.0000   0.2079
  16.000   1.3013   0.05264   0.04894   0.0264  0.0120  1.0000  -9.4911   0.0000   0.2083
  16.100   1.2979   0.05453   0.05088   0.0255  0.0120  1.0000  -9.5039   0.0000   0.2087
  16.200   1.2935   0.05658   0.05299   0.0244  0.0120  1.0000  -9.5074   0.0000   0.2092
  16.300   1.2889   0.05865   0.05511   0.0234  0.0120  1.0000  -9.5084   0.0000   0.2097
  16.400   1.2834   0.06088   0.05739   0.0223  0.0120  1.0000  -9.5004   0.0000   0.2102
  16.500   1.2774   0.06323   0.05980   0.0211  0.0120  1.0000  -9.4864   0.0000   0.2109
  16.600   1.2714   0.06559   0.06222   0.0199  0.0120  1.0000  -9.4713   0.0000   0.2115
  16.700   1.2641   0.06822   0.06490   0.0185  0.0120  1.0000  -9.4424   0.0000   0.2123
  16.800   1.2568   0.07085   0.06759   0.0172  0.0120  1.0000  -9.4124   0.0000   0.2130
  16.900   1.2490   0.07360   0.07040   0.0157  0.0120  1.0000  -9.3759   0.0000   0.2139
  17.000   1.2401   0.07659   0.07344   0.0141  0.0120  1.0000  -9.3270   0.0000   0.2148
  17.100   1.2316   0.07948   0.07639   0.0126  0.0120  1.0000  -9.2816   0.0000   0.2157
  17.200   1.2214   0.08271   0.07968   0.0109  0.0120  1.0000  -9.2166   0.0000   0.2168
  17.300   1.2111   0.08595   0.08298   0.0092  0.0120  1.0000  -9.1486   0.0000   0.2179
  17.400   1.2007   0.08925   0.08634   0.0075  0.0120  1.0000  -9.0784   0.0000   0.2191
  17.500   1.1888   0.09291   0.09006   0.0055  0.0120  1.0000  -8.9890   0.0000   0.2205
  17.600   1.1782   0.09637   0.09357   0.0037  0.0120  1.0000  -8.9102   0.0000   0.2218
  17.700   1.1652   0.10034   0.09761   0.0015  0.0120  1.0000  -8.8030   0.0000   0.2234
  17.800   1.1525   0.10429   0.10162  -0.0006  0.0120  1.0000  -8.6958   0.0000   0.2250
  17.900   1.1396   0.10832   0.10571  -0.0027  0.0120  1.0000  -8.5830   0.0000   0.2267
  18.000   1.1244   0.11289   0.11035  -0.0052  0.0120  1.0000  -8.4390   0.0000   0.2288
  18.100   1.1105   0.11713   0.11466  -0.0074  0.0120  1.0000  -8.3080   0.0000   0.2307
  18.200   1.0927   0.12224   0.11984  -0.0102  0.0120  1.0000  -8.1255   0.0000   0.2331
  18.300   1.0726   0.12798   0.12566  -0.0132  0.0120  1.0000  -7.9070   0.0000   0.2361
  18.400   1.0493   0.13458   0.13234  -0.0168  0.0121  1.0000  -7.6372   0.0000   0.2397
  18.500   1.0115   0.14468   0.14257  -0.0223  0.0121  1.0000  -7.1580   0.0000   0.2458
  19.500   0.8010   0.23248   0.23068  -0.0619  0.0104  1.0000  -2.3760   0.0000   0.3050
  19.600   0.8027   0.23447   0.23267  -0.0628  0.0108  1.0000  -2.3286   0.0000   0.3059
  19.700   0.8047   0.23616   0.23436  -0.0636  0.0111  1.0000  -2.3041   0.0000   0.3065
  19.800   0.8017   0.23963   0.23783  -0.0644  0.0121  1.0000  -2.1590   0.0000   0.3077
  19.900   0.8041   0.24135   0.23955  -0.0653  0.0121  1.0000  -2.1402   0.0000   0.3084
  20.000   0.8066   0.24306   0.24126  -0.0661  0.0121  1.0000  -2.1229   0.0000   0.3091


