xflr5 v6.32

 Calculated polar for: NACA 0012

 1 1 Reynolds number fixed          Mach number fixed         

 xtrf =   1.000 (top)        1.000 (bottom)
 Mach =   0.000     Re =     3.500 e 6     Ncrit =   9.000

  alpha     CL        CD       CDp       Cm    Top Xtr Bot Xtr   Cpmin    Chinge    XCp    
 ------- -------- --------- --------- -------- ------- ------- -------- --------- ---------
 -15.000  -1.5488   0.01941   0.01497  -0.0163  1.0000  0.0072  -11.1397   0.0000   0.2205
 -14.900  -1.5440   0.01910   0.01462  -0.0155  1.0000  0.0072  -11.0419   0.0000   0.2212
 -14.800  -1.5384   0.01879   0.01428  -0.0148  1.0000  0.0072  -10.9393   0.0000   0.2218
 -14.700  -1.5323   0.01849   0.01395  -0.0142  1.0000  0.0073  -10.8344   0.0000   0.2224
 -14.600  -1.5260   0.01819   0.01362  -0.0136  1.0000  0.0073  -10.7281   0.0000   0.2229
 -14.500  -1.5194   0.01791   0.01330  -0.0130  1.0000  0.0074  -10.6209   0.0000   0.2234
 -14.400  -1.5127   0.01763   0.01299  -0.0124  1.0000  0.0075  -10.5129   0.0000   0.2239
 -14.300  -1.5057   0.01735   0.01269  -0.0119  1.0000  0.0076  -10.4045   0.0000   0.2244
 -14.200  -1.4986   0.01708   0.01238  -0.0114  1.0000  0.0077  -10.2965   0.0000   0.2249
 -14.100  -1.4914   0.01681   0.01208  -0.0109  1.0000  0.0078  -10.1884   0.0000   0.2254
 -14.000  -1.4842   0.01654   0.01178  -0.0104  1.0000  0.0081  -10.0816   0.0000   0.2259
 -13.900  -1.4771   0.01625   0.01146  -0.0098  1.0000  0.0085  -9.9774   0.0000   0.2264
 -13.800  -1.4699   0.01596   0.01117  -0.0093  1.0000  0.0091  -9.8725   0.0000   0.2269
 -13.700  -1.4622   0.01571   0.01092  -0.0089  1.0000  0.0096  -9.7600   0.0000   0.2273
 -13.600  -1.4541   0.01548   0.01070  -0.0085  1.0000  0.0099  -9.6437   0.0000   0.2277
 -13.500  -1.4458   0.01528   0.01050  -0.0081  1.0000  0.0103  -9.5254   0.0000   0.2281
 -13.400  -1.4372   0.01509   0.01032  -0.0078  1.0000  0.0106  -9.4056   0.0000   0.2285
 -13.300  -1.4285   0.01492   0.01015  -0.0075  1.0000  0.0108  -9.2848   0.0000   0.2288
 -13.200  -1.4195   0.01477   0.00999  -0.0072  1.0000  0.0110  -9.1632   0.0000   0.2291
 -13.100  -1.4105   0.01462   0.00984  -0.0069  1.0000  0.0112  -9.0413   0.0000   0.2294
 -13.000  -1.4013   0.01447   0.00969  -0.0067  1.0000  0.0114  -8.9193   0.0000   0.2298
 -12.900  -1.3920   0.01434   0.00955  -0.0065  1.0000  0.0115  -8.7972   0.0000   0.2301
 -12.800  -1.3827   0.01421   0.00942  -0.0062  1.0000  0.0116  -8.6752   0.0000   0.2304
 -12.700  -1.3733   0.01408   0.00929  -0.0060  1.0000  0.0117  -8.5534   0.0000   0.2307
 -12.600  -1.3638   0.01396   0.00916  -0.0058  1.0000  0.0118  -8.4319   0.0000   0.2309
 -12.500  -1.3543   0.01384   0.00904  -0.0056  1.0000  0.0118  -8.3108   0.0000   0.2312
 -12.400  -1.3447   0.01372   0.00892  -0.0054  1.0000  0.0119  -8.1901   0.0000   0.2315
 -12.300  -1.3352   0.01360   0.00879  -0.0052  1.0000  0.0119  -8.0695   0.0000   0.2318
 -12.200  -1.3255   0.01349   0.00868  -0.0050  1.0000  0.0120  -7.9500   0.0000   0.2321
 -12.100  -1.3159   0.01338   0.00856  -0.0048  1.0000  0.0120  -7.8319   0.0000   0.2324
 -12.000  -1.3062   0.01327   0.00845  -0.0046  1.0000  0.0120  -7.7270   0.0000   0.2326
 -11.900  -1.2966   0.01316   0.00834  -0.0044  1.0000  0.0120  -7.6228   0.0000   0.2329
 -11.800  -1.2869   0.01305   0.00823  -0.0042  1.0000  0.0121  -7.5190   0.0000   0.2332
 -11.700  -1.2772   0.01295   0.00812  -0.0040  1.0000  0.0121  -7.4158   0.0000   0.2335
 -11.600  -1.2675   0.01284   0.00801  -0.0037  1.0000  0.0121  -7.3133   0.0000   0.2338
 -11.500  -1.2578   0.01273   0.00790  -0.0035  1.0000  0.0121  -7.2114   0.0000   0.2341
 -11.400  -1.2482   0.01263   0.00780  -0.0033  1.0000  0.0121  -7.1103   0.0000   0.2344
 -11.300  -1.2385   0.01253   0.00769  -0.0031  1.0000  0.0121  -7.0099   0.0000   0.2347
 -11.200  -1.2289   0.01242   0.00758  -0.0028  1.0000  0.0121  -6.9103   0.0000   0.2350
 -11.100  -1.2194   0.01232   0.00748  -0.0026  1.0000  0.0121  -6.8115   0.0000   0.2353
 -11.000  -1.2099   0.01222   0.00738  -0.0023  1.0000  0.0121  -6.7137   0.0000   0.2357
 -10.900  -1.2010   0.01207   0.00721  -0.0019  1.0000  0.0123  -6.6251   0.0000   0.2361
 -10.800  -1.1922   0.01191   0.00703  -0.0015  1.0000  0.0125  -6.5385   0.0000   0.2366
 -10.700  -1.1834   0.01176   0.00687  -0.0011  1.0000  0.0128  -6.4523   0.0000   0.2371
 -10.600  -1.1747   0.01162   0.00671  -0.0007  1.0000  0.0131  -6.3667   0.0000   0.2376
 -10.500  -1.1661   0.01147   0.00654  -0.0002  1.0000  0.0137  -6.2811   0.0000   0.2381
 -10.400  -1.1575   0.01133   0.00640   0.0003  1.0000  0.0143  -6.1966   0.0000   0.2387
 -10.300  -1.1490   0.01119   0.00626   0.0008  1.0000  0.0150  -6.1116   0.0000   0.2392
 -10.200  -1.1405   0.01106   0.00613   0.0012  1.0000  0.0157  -6.0258   0.0000   0.2398
 -10.100  -1.1320   0.01093   0.00602   0.0017  1.0000  0.0162  -5.9398   0.0000   0.2404
 -10.000  -1.1236   0.01081   0.00590   0.0022  1.0000  0.0167  -5.8539   0.0000   0.2410
  -9.900  -1.1151   0.01070   0.00580   0.0028  1.0000  0.0171  -5.7680   0.0000   0.2416
  -9.800  -1.1065   0.01060   0.00571   0.0033  1.0000  0.0175  -5.6823   0.0000   0.2422
  -9.700  -1.0980   0.01051   0.00562   0.0038  1.0000  0.0178  -5.5970   0.0000   0.2428
  -9.600  -1.0895   0.01042   0.00553   0.0043  1.0000  0.0181  -5.5120   0.0000   0.2434
  -9.300  -1.0531   0.01015   0.00527   0.0034  0.9994  0.0186  -5.2133   0.0000   0.2431
  -9.200  -1.0406   0.01007   0.00518   0.0031  0.9991  0.0187  -5.1135   0.0000   0.2430
  -9.100  -1.0281   0.00999   0.00510   0.0028  0.9988  0.0188  -5.0145   0.0000   0.2428
  -9.000  -1.0155   0.00991   0.00502   0.0024  0.9984  0.0188  -4.9162   0.0000   0.2426
  -8.900  -1.0030   0.00983   0.00495   0.0020  0.9981  0.0188  -4.8184   0.0000   0.2424
  -8.800  -0.9905   0.00972   0.00483   0.0017  0.9977  0.0194  -4.7251   0.0000   0.2422
  -8.700  -0.9782   0.00960   0.00470   0.0014  0.9973  0.0204  -4.6340   0.0000   0.2420
  -8.600  -0.9657   0.00948   0.00458   0.0011  0.9968  0.0216  -4.5417   0.0000   0.2418
  -8.500  -0.9533   0.00936   0.00448   0.0007  0.9964  0.0227  -4.4491   0.0000   0.2416
  -8.400  -0.9407   0.00924   0.00438   0.0004  0.9960  0.0237  -4.3565   0.0000   0.2413
  -8.300  -0.9282   0.00913   0.00428   0.0000  0.9956  0.0245  -4.2641   0.0000   0.2410
  -8.200  -0.9155   0.00904   0.00419  -0.0004  0.9952  0.0252  -4.1718   0.0000   0.2407
  -8.100  -0.9026   0.00895   0.00411  -0.0008  0.9948  0.0259  -4.0798   0.0000   0.2403
  -8.000  -0.8897   0.00886   0.00403  -0.0012  0.9945  0.0263  -3.9881   0.0000   0.2400
  -7.900  -0.8768   0.00879   0.00396  -0.0017  0.9942  0.0266  -3.8969   0.0000   0.2396
  -7.800  -0.8637   0.00871   0.00389  -0.0021  0.9938  0.0268  -3.8061   0.0000   0.2391
  -7.700  -0.8506   0.00865   0.00382  -0.0026  0.9935  0.0269  -3.7160   0.0000   0.2386
  -7.600  -0.8377   0.00855   0.00373  -0.0030  0.9930  0.0281  -3.6284   0.0000   0.2382
  -7.500  -0.8258   0.00846   0.00365  -0.0032  0.9922  0.0299  -3.5453   0.0000   0.2380
  -7.400  -0.8148   0.00836   0.00357  -0.0032  0.9907  0.0316  -3.4656   0.0000   0.2381
  -7.300  -0.8036   0.00826   0.00348  -0.0032  0.9891  0.0329  -3.3855   0.0000   0.2381
  -7.200  -0.7922   0.00817   0.00341  -0.0032  0.9875  0.0341  -3.3054   0.0000   0.2380
  -7.100  -0.7805   0.00809   0.00333  -0.0034  0.9859  0.0350  -3.2235   0.0000   0.2379
  -7.000  -0.7685   0.00802   0.00327  -0.0036  0.9843  0.0357  -3.1428   0.0000   0.2377
  -6.900  -0.7565   0.00796   0.00320  -0.0038  0.9827  0.0362  -3.0642   0.0000   0.2374
  -6.800  -0.7444   0.00790   0.00314  -0.0040  0.9810  0.0370  -2.9966   0.0000   0.2372
  -6.700  -0.7333   0.00781   0.00307  -0.0040  0.9791  0.0398  -2.9326   0.0000   0.2372
  -6.600  -0.7231   0.00772   0.00300  -0.0038  0.9766  0.0423  -2.8716   0.0000   0.2375
  -6.500  -0.7127   0.00763   0.00293  -0.0036  0.9737  0.0443  -2.8101   0.0000   0.2377
  -6.400  -0.7020   0.00756   0.00286  -0.0035  0.9706  0.0458  -2.7483   0.0000   0.2379
  -6.300  -0.6913   0.00750   0.00281  -0.0034  0.9674  0.0467  -2.6866   0.0000   0.2380
  -6.200  -0.6805   0.00745   0.00275  -0.0032  0.9642  0.0474  -2.6255   0.0000   0.2382
  -6.100  -0.6698   0.00738   0.00269  -0.0031  0.9615  0.0504  -2.5653   0.0000   0.2384
  -6.000  -0.6592   0.00730   0.00263  -0.0030  0.9583  0.0533  -2.5060   0.0000   0.2386
  -5.900  -0.6487   0.00722   0.00256  -0.0028  0.9543  0.0557  -2.4472   0.0000   0.2389
  -5.800  -0.6383   0.00716   0.00250  -0.0027  0.9500  0.0576  -2.3887   0.0000   0.2391
  -5.700  -0.6277   0.00711   0.00245  -0.0025  0.9456  0.0588  -2.3305   0.0000   0.2394
  -5.600  -0.6168   0.00706   0.00240  -0.0024  0.9423  0.0610  -2.2718   0.0000   0.2395
  -5.500  -0.6060   0.00698   0.00234  -0.0023  0.9384  0.0651  -2.2142   0.0000   0.2397
  -5.400  -0.5954   0.00690   0.00227  -0.0022  0.9335  0.0682  -2.1561   0.0000   0.2399
  -5.300  -0.5849   0.00685   0.00221  -0.0020  0.9280  0.0707  -2.0999   0.0000   0.2402
  -5.200  -0.5741   0.00681   0.00216  -0.0019  0.9229  0.0723  -2.0437   0.0000   0.2404
  -5.100  -0.5631   0.00675   0.00211  -0.0019  0.9191  0.0766  -1.9874   0.0000   0.2405
  -5.000  -0.5524   0.00667   0.00205  -0.0018  0.9138  0.0812  -1.9325   0.0000   0.2407
  -4.900  -0.5417   0.00661   0.00200  -0.0016  0.9074  0.0849  -1.8781   0.0000   0.2410
  -4.800  -0.5310   0.00658   0.00195  -0.0015  0.9006  0.0876  -1.8239   0.0000   0.2412
  -4.700  -0.5201   0.00649   0.00189  -0.0014  0.8963  0.0954  -1.7706   0.0000   0.2413
  -4.600  -0.5093   0.00641   0.00184  -0.0014  0.8905  0.1006  -1.7252   0.0000   0.2415
  -4.500  -0.4984   0.00638   0.00179  -0.0013  0.8833  0.1040  -1.6801   0.0000   0.2417
  -4.400  -0.4878   0.00632   0.00174  -0.0011  0.8758  0.1112  -1.6360   0.0000   0.2419
  -4.300  -0.4768   0.00625   0.00169  -0.0011  0.8706  0.1164  -1.5914   0.0000   0.2420
  -4.200  -0.4657   0.00622   0.00165  -0.0011  0.8636  0.1195  -1.5469   0.0000   0.2421
  -4.100  -0.4550   0.00617   0.00160  -0.0010  0.8551  0.1270  -1.5036   0.0000   0.2424
  -4.000  -0.4441   0.00610   0.00156  -0.0009  0.8486  0.1333  -1.4603   0.0000   0.2425
  -3.900  -0.4329   0.00607   0.00152  -0.0009  0.8419  0.1372  -1.4167   0.0000   0.2426
  -3.800  -0.4222   0.00600   0.00147  -0.0008  0.8331  0.1471  -1.3745   0.0000   0.2428
  -3.700  -0.4114   0.00595   0.00142  -0.0007  0.8241  0.1547  -1.3324   0.0000   0.2430
  -3.600  -0.4002   0.00591   0.00138  -0.0007  0.8183  0.1620  -1.2891   0.0000   0.2431
  -3.500  -0.3895   0.00583   0.00133  -0.0006  0.8099  0.1717  -1.2480   0.0000   0.2433
  -3.400  -0.3785   0.00582   0.00130  -0.0005  0.7993  0.1763  -1.2101   0.0000   0.2434
  -3.300  -0.3674   0.00576   0.00126  -0.0005  0.7928  0.1855  -1.1749   0.0000   0.2435
  -3.200  -0.3564   0.00571   0.00123  -0.0005  0.7846  0.1932  -1.1401   0.0000   0.2436
  -3.100  -0.3454   0.00571   0.00120  -0.0004  0.7743  0.1975  -1.1053   0.0000   0.2438
  -3.000  -0.3344   0.00564   0.00116  -0.0004  0.7667  0.2096  -1.0712   0.0000   0.2439
  -2.900  -0.3234   0.00559   0.00113  -0.0003  0.7588  0.2182  -1.0370   0.0000   0.2440
  -2.800  -0.3125   0.00555   0.00110  -0.0003  0.7481  0.2294  -1.0035   0.0000   0.2442
  -2.700  -0.3015   0.00551   0.00106  -0.0002  0.7392  0.2384  -0.9699   0.0000   0.2443
  -2.600  -0.2901   0.00549   0.00104  -0.0002  0.7319  0.2430  -0.9383   0.0000   0.2443
  -2.500  -0.2792   0.00546   0.00102  -0.0002  0.7218  0.2537  -0.9097   0.0000   0.2445
  -2.400  -0.2682   0.00542   0.00099  -0.0002  0.7114  0.2624  -0.8813   0.0000   0.2446
  -2.300  -0.2569   0.00539   0.00097  -0.0002  0.7043  0.2716  -0.8527   0.0000   0.2446
  -2.200  -0.2461   0.00534   0.00094  -0.0001  0.6944  0.2840  -0.8249   0.0000   0.2448
  -2.100  -0.2349   0.00534   0.00092  -0.0001  0.6832  0.2900  -0.7967   0.0000   0.2449
  -2.000  -0.2237   0.00530   0.00090  -0.0001  0.6768  0.3003  -0.7722   0.0000   0.2449
  -1.900  -0.2126   0.00527   0.00088  -0.0001  0.6670  0.3099  -0.7480   0.0000   0.2450
  -1.800  -0.2015   0.00527   0.00086  -0.0001  0.6546  0.3167  -0.7238   0.0000   0.2451
  -1.700  -0.1904   0.00521   0.00083  -0.0000  0.6486  0.3306  -0.7000   0.0000   0.2452
  -1.600  -0.1792   0.00520   0.00082  -0.0000  0.6396  0.3387  -0.6778   0.0000   0.2452
  -1.500  -0.1680   0.00521   0.00081  -0.0000  0.6273  0.3456  -0.6567   0.0000   0.2453
  -1.400  -0.1569   0.00516   0.00079  -0.0000  0.6203  0.3580  -0.6359   0.0000   0.2453
  -1.300  -0.1456   0.00514   0.00078  -0.0000  0.6116  0.3661  -0.6151   0.0000   0.2453
  -1.200  -0.1345   0.00514   0.00077  -0.0000  0.6000  0.3765  -0.5967   0.0000   0.2455
  -1.100  -0.1234   0.00511   0.00075   0.0000  0.5921  0.3868  -0.5783   0.0000   0.2455
  -1.000  -0.1120   0.00510   0.00074  -0.0000  0.5840  0.3936  -0.5598   0.0000   0.2454
  -0.900  -0.1010   0.00510   0.00074   0.0000  0.5724  0.4051  -0.5432   0.0000   0.2457
  -0.800  -0.0898   0.00507   0.00072   0.0000  0.5637  0.4156  -0.5268   0.0000   0.2457
  -0.700  -0.0784   0.00507   0.00072  -0.0000  0.5562  0.4217  -0.5104   0.0000   0.2454
  -0.600  -0.0673   0.00507   0.00072   0.0000  0.5453  0.4333  -0.4955   0.0000   0.2457
  -0.500  -0.0562   0.00505   0.00071   0.0000  0.5351  0.4438  -0.4809   0.0000   0.2459
  -0.400  -0.0448   0.00505   0.00070  -0.0000  0.5281  0.4500  -0.4661   0.0000   0.2453
  -0.300  -0.0337   0.00504   0.00070   0.0000  0.5178  0.4616  -0.4527   0.0000   0.2457
  -0.200  -0.0225   0.00504   0.00070   0.0000  0.5067  0.4719  -0.4395   0.0000   0.2463
  -0.100  -0.0111   0.00504   0.00070  -0.0000  0.5000  0.4783  -0.4262   0.0000   0.2444
   0.000   0.0000   0.00504   0.00071  -0.0000  0.4899  0.4899  -0.4140   0.0000   0.3929
   0.100   0.0111   0.00504   0.00070   0.0000  0.4783  0.5000  -0.4262   0.0000   0.2444
   0.200   0.0225   0.00504   0.00070  -0.0000  0.4719  0.5067  -0.4395   0.0000   0.2463
   0.300   0.0337   0.00504   0.00070  -0.0000  0.4616  0.5178  -0.4527   0.0000   0.2457
   0.400   0.0448   0.00505   0.00070   0.0000  0.4500  0.5281  -0.4661   0.0000   0.2453
   0.500   0.0562   0.00505   0.00071  -0.0000  0.4438  0.5351  -0.4809   0.0000   0.2459
   0.600   0.0673   0.00507   0.00072  -0.0000  0.4333  0.5453  -0.4955   0.0000   0.2457
   0.700   0.0784   0.00507   0.00072   0.0000  0.4217  0.5562  -0.5104   0.0000   0.2454
   0.800   0.0898   0.00507   0.00072  -0.0000  0.4156  0.5637  -0.5268   0.0000   0.2457
   0.900   0.1010   0.00510   0.00074  -0.0000  0.4051  0.5724  -0.5432   0.0000   0.2457
   1.000   0.1120   0.00510   0.00074   0.0000  0.3936  0.5840  -0.5598   0.0000   0.2454
   1.100   0.1234   0.00511   0.00075  -0.0000  0.3868  0.5921  -0.5783   0.0000   0.2455
   1.200   0.1345   0.00514   0.00077  -0.0000  0.3765  0.6001  -0.5967   0.0000   0.2455
   1.300   0.1456   0.00514   0.00078   0.0000  0.3662  0.6116  -0.6151   0.0000   0.2453
   1.400   0.1569   0.00516   0.00079   0.0000  0.3581  0.6203  -0.6359   0.0000   0.2454
   1.500   0.1680   0.00521   0.00081   0.0000  0.3456  0.6273  -0.6567   0.0000   0.2453
   1.600   0.1792   0.00520   0.00082   0.0000  0.3387  0.6396  -0.6778   0.0000   0.2452
   1.700   0.1904   0.00521   0.00083   0.0000  0.3306  0.6486  -0.7000   0.0000   0.2452
   1.900   0.2126   0.00527   0.00088   0.0001  0.3099  0.6670  -0.7480   0.0000   0.2450
   2.000   0.2237   0.00530   0.00090   0.0001  0.3003  0.6768  -0.7722   0.0000   0.2449
   2.100   0.2349   0.00534   0.00092   0.0001  0.2900  0.6832  -0.7968   0.0000   0.2449
   2.200   0.2461   0.00534   0.00094   0.0001  0.2840  0.6944  -0.8249   0.0000   0.2448
   2.300   0.2569   0.00539   0.00097   0.0002  0.2716  0.7043  -0.8527   0.0000   0.2446
   2.400   0.2682   0.00542   0.00099   0.0002  0.2624  0.7114  -0.8813   0.0000   0.2446
   2.500   0.2792   0.00546   0.00102   0.0002  0.2537  0.7218  -0.9098   0.0000   0.2445
   2.600   0.2902   0.00549   0.00104   0.0002  0.2430  0.7319  -0.9383   0.0000   0.2443
   2.700   0.3015   0.00551   0.00106   0.0002  0.2384  0.7392  -0.9700   0.0000   0.2443
   2.800   0.3125   0.00555   0.00110   0.0003  0.2294  0.7481  -1.0035   0.0000   0.2442
   2.900   0.3234   0.00559   0.00113   0.0003  0.2182  0.7588  -1.0370   0.0000   0.2440
   3.000   0.3345   0.00564   0.00116   0.0004  0.2096  0.7667  -1.0712   0.0000   0.2439
   3.100   0.3454   0.00571   0.00120   0.0004  0.1975  0.7743  -1.1053   0.0000   0.2438
   3.200   0.3564   0.00571   0.00123   0.0004  0.1932  0.7847  -1.1401   0.0000   0.2436
   3.300   0.3674   0.00576   0.00126   0.0005  0.1855  0.7928  -1.1750   0.0000   0.2435
   3.400   0.3785   0.00582   0.00130   0.0005  0.1763  0.7994  -1.2102   0.0000   0.2434
   3.500   0.3895   0.00583   0.00133   0.0006  0.1717  0.8099  -1.2480   0.0000   0.2433
   3.600   0.4003   0.00591   0.00138   0.0007  0.1620  0.8183  -1.2892   0.0000   0.2431
   3.700   0.4114   0.00595   0.00142   0.0007  0.1547  0.8241  -1.3324   0.0000   0.2430
   3.800   0.4222   0.00600   0.00147   0.0008  0.1471  0.8331  -1.3746   0.0000   0.2428
   3.900   0.4329   0.00607   0.00152   0.0009  0.1372  0.8419  -1.4168   0.0000   0.2426
   4.000   0.4441   0.00610   0.00156   0.0009  0.1333  0.8486  -1.4604   0.0000   0.2425
   4.100   0.4550   0.00617   0.00160   0.0009  0.1270  0.8551  -1.5037   0.0000   0.2424
   4.200   0.4657   0.00622   0.00165   0.0011  0.1195  0.8636  -1.5469   0.0000   0.2421
   4.300   0.4768   0.00625   0.00169   0.0011  0.1164  0.8706  -1.5914   0.0000   0.2420
   4.400   0.4878   0.00632   0.00174   0.0011  0.1112  0.8758  -1.6361   0.0000   0.2419
   4.500   0.4984   0.00638   0.00179   0.0013  0.1040  0.8833  -1.6802   0.0000   0.2417
   4.600   0.5093   0.00642   0.00184   0.0014  0.1006  0.8905  -1.7253   0.0000   0.2415
   4.700   0.5202   0.00649   0.00189   0.0014  0.0954  0.8963  -1.7707   0.0000   0.2413
   4.800   0.5310   0.00658   0.00195   0.0015  0.0876  0.9005  -1.8240   0.0000   0.2412
   4.900   0.5418   0.00661   0.00200   0.0016  0.0849  0.9074  -1.8782   0.0000   0.2410
   5.000   0.5524   0.00667   0.00205   0.0018  0.0812  0.9138  -1.9326   0.0000   0.2407
   5.100   0.5631   0.00675   0.00211   0.0019  0.0766  0.9191  -1.9875   0.0000   0.2405
   5.200   0.5742   0.00681   0.00216   0.0019  0.0723  0.9229  -2.0438   0.0000   0.2405
   5.300   0.5849   0.00685   0.00221   0.0020  0.0707  0.9280  -2.1001   0.0000   0.2402
   5.400   0.5955   0.00691   0.00227   0.0022  0.0682  0.9335  -2.1562   0.0000   0.2400
   5.500   0.6061   0.00698   0.00234   0.0023  0.0651  0.9384  -2.2143   0.0000   0.2397
   5.600   0.6168   0.00706   0.00240   0.0024  0.0610  0.9423  -2.2720   0.0000   0.2396
   5.700   0.6278   0.00711   0.00245   0.0025  0.0588  0.9456  -2.3307   0.0000   0.2394
   5.800   0.6383   0.00716   0.00250   0.0027  0.0576  0.9500  -2.3889   0.0000   0.2392
   5.900   0.6488   0.00722   0.00256   0.0028  0.0557  0.9543  -2.4474   0.0000   0.2389
   6.000   0.6593   0.00730   0.00263   0.0030  0.0533  0.9583  -2.5062   0.0000   0.2386
   6.100   0.6698   0.00738   0.00269   0.0031  0.0504  0.9615  -2.5655   0.0000   0.2384
   6.200   0.6806   0.00745   0.00275   0.0032  0.0474  0.9642  -2.6256   0.0000   0.2382
   6.300   0.6913   0.00750   0.00281   0.0034  0.0467  0.9674  -2.6868   0.0000   0.2381
   6.400   0.7021   0.00756   0.00286   0.0035  0.0458  0.9706  -2.7484   0.0000   0.2379
   6.500   0.7127   0.00763   0.00293   0.0036  0.0443  0.9737  -2.8102   0.0000   0.2377
   6.600   0.7232   0.00772   0.00300   0.0037  0.0423  0.9766  -2.8718   0.0000   0.2375
   6.700   0.7334   0.00781   0.00307   0.0040  0.0397  0.9791  -2.9328   0.0000   0.2372
   6.800   0.7445   0.00790   0.00314   0.0040  0.0370  0.9810  -2.9968   0.0000   0.2372
   6.900   0.7565   0.00796   0.00320   0.0038  0.0362  0.9827  -3.0644   0.0000   0.2374
   7.000   0.7686   0.00802   0.00327   0.0036  0.0357  0.9843  -3.1430   0.0000   0.2377
   7.100   0.7806   0.00809   0.00333   0.0034  0.0350  0.9859  -3.2237   0.0000   0.2379
   7.200   0.7923   0.00817   0.00341   0.0032  0.0341  0.9875  -3.3056   0.0000   0.2380
   7.300   0.8036   0.00826   0.00348   0.0032  0.0329  0.9891  -3.3857   0.0000   0.2381
   7.400   0.8148   0.00836   0.00357   0.0031  0.0316  0.9907  -3.4658   0.0000   0.2381
   7.500   0.8258   0.00846   0.00365   0.0032  0.0300  0.9922  -3.5455   0.0000   0.2380
   7.600   0.8378   0.00855   0.00373   0.0030  0.0281  0.9930  -3.6287   0.0000   0.2382
   7.700   0.8507   0.00864   0.00382   0.0025  0.0269  0.9935  -3.7163   0.0000   0.2387
   7.800   0.8638   0.00871   0.00389   0.0021  0.0268  0.9939  -3.8064   0.0000   0.2391
   7.900   0.8768   0.00879   0.00396   0.0016  0.0266  0.9942  -3.8972   0.0000   0.2396
   8.000   0.8898   0.00886   0.00403   0.0012  0.0263  0.9945  -3.9885   0.0000   0.2400
   8.100   0.9027   0.00895   0.00411   0.0008  0.0259  0.9949  -4.0801   0.0000   0.2404
   8.200   0.9156   0.00904   0.00419   0.0004  0.0252  0.9952  -4.1722   0.0000   0.2407
   8.300   0.9283   0.00913   0.00428  -0.0000  0.0245  0.9956  -4.2645   0.0000   0.2410
   8.400   0.9408   0.00924   0.00438  -0.0004  0.0237  0.9960  -4.3568   0.0000   0.2413
   8.500   0.9534   0.00936   0.00448  -0.0008  0.0227  0.9964  -4.4495   0.0000   0.2416
   8.600   0.9658   0.00948   0.00458  -0.0011  0.0216  0.9969  -4.5420   0.0000   0.2418
   8.700   0.9783   0.00960   0.00469  -0.0014  0.0204  0.9973  -4.6344   0.0000   0.2420
   8.800   0.9906   0.00972   0.00483  -0.0017  0.0194  0.9977  -4.7255   0.0000   0.2422
   8.900   1.0031   0.00983   0.00495  -0.0021  0.0188  0.9981  -4.8188   0.0000   0.2424
   9.000   1.0156   0.00991   0.00502  -0.0024  0.0188  0.9984  -4.9166   0.0000   0.2426
   9.100   1.0282   0.00999   0.00510  -0.0028  0.0188  0.9988  -5.0150   0.0000   0.2428
   9.200   1.0407   0.01007   0.00518  -0.0031  0.0187  0.9991  -5.1140   0.0000   0.2430
   9.300   1.0532   0.01015   0.00526  -0.0035  0.0186  0.9994  -5.2137   0.0000   0.2432
   9.400   1.0656   0.01024   0.00535  -0.0038  0.0185  0.9996  -5.3140   0.0000   0.2433
   9.500   1.0780   0.01033   0.00544  -0.0041  0.0183  0.9999  -5.4147   0.0000   0.2435
   9.600   1.0894   0.01042   0.00553  -0.0042  0.0181  1.0000  -5.5112   0.0000   0.2434
   9.700   1.0979   0.01051   0.00562  -0.0037  0.0178  1.0000  -5.5962   0.0000   0.2427
   9.800   1.1064   0.01060   0.00571  -0.0032  0.0175  1.0000  -5.6815   0.0000   0.2421
   9.900   1.1149   0.01070   0.00580  -0.0027  0.0171  1.0000  -5.7673   0.0000   0.2415
  10.000   1.1234   0.01081   0.00590  -0.0022  0.0167  1.0000  -5.8533   0.0000   0.2409
  10.100   1.1319   0.01093   0.00601  -0.0017  0.0162  1.0000  -5.9392   0.0000   0.2404
  10.200   1.1404   0.01106   0.00613  -0.0012  0.0157  1.0000  -6.0253   0.0000   0.2398
  10.300   1.1489   0.01119   0.00626  -0.0007  0.0150  1.0000  -6.1112   0.0000   0.2392
  10.400   1.1574   0.01133   0.00640  -0.0003  0.0143  1.0000  -6.1962   0.0000   0.2387
  10.500   1.1661   0.01147   0.00654   0.0002  0.0137  1.0000  -6.2809   0.0000   0.2381
  10.600   1.1747   0.01162   0.00671   0.0007  0.0131  1.0000  -6.3664   0.0000   0.2376
  10.700   1.1834   0.01176   0.00686   0.0011  0.0128  1.0000  -6.4521   0.0000   0.2371
  10.800   1.1922   0.01191   0.00703   0.0015  0.0125  1.0000  -6.5385   0.0000   0.2366
  10.900   1.2010   0.01207   0.00720   0.0019  0.0123  1.0000  -6.6252   0.0000   0.2361
  11.000   1.2099   0.01222   0.00738   0.0023  0.0121  1.0000  -6.7139   0.0000   0.2357
  11.100   1.2194   0.01232   0.00748   0.0026  0.0121  1.0000  -6.8118   0.0000   0.2354
  11.200   1.2290   0.01242   0.00758   0.0028  0.0121  1.0000  -6.9106   0.0000   0.2350
  11.300   1.2386   0.01253   0.00769   0.0031  0.0121  1.0000  -7.0103   0.0000   0.2347
  11.400   1.2483   0.01263   0.00779   0.0033  0.0121  1.0000  -7.1108   0.0000   0.2344
  11.500   1.2580   0.01273   0.00790   0.0035  0.0121  1.0000  -7.2121   0.0000   0.2341
  11.600   1.2677   0.01284   0.00801   0.0037  0.0121  1.0000  -7.3140   0.0000   0.2338
  11.700   1.2774   0.01295   0.00812   0.0039  0.0121  1.0000  -7.4166   0.0000   0.2335
  11.800   1.2870   0.01305   0.00823   0.0041  0.0121  1.0000  -7.5198   0.0000   0.2332
  11.900   1.2967   0.01316   0.00834   0.0043  0.0120  1.0000  -7.6236   0.0000   0.2329
  12.000   1.3064   0.01327   0.00845   0.0045  0.0120  1.0000  -7.7280   0.0000   0.2327
  12.100   1.3161   0.01338   0.00856   0.0047  0.0120  1.0000  -7.8329   0.0000   0.2324
  12.200   1.3257   0.01349   0.00868   0.0049  0.0120  1.0000  -7.9512   0.0000   0.2321
  12.300   1.3354   0.01360   0.00879   0.0051  0.0119  1.0000  -8.0707   0.0000   0.2318
  12.400   1.3450   0.01372   0.00892   0.0053  0.0119  1.0000  -8.1914   0.0000   0.2315
  12.500   1.3545   0.01384   0.00904   0.0055  0.0118  1.0000  -8.3123   0.0000   0.2313
  12.600   1.3641   0.01396   0.00916   0.0057  0.0118  1.0000  -8.4334   0.0000   0.2310
  12.700   1.3735   0.01408   0.00929   0.0060  0.0117  1.0000  -8.5550   0.0000   0.2307
  12.800   1.3830   0.01421   0.00942   0.0062  0.0116  1.0000  -8.6768   0.0000   0.2304
  12.900   1.3923   0.01434   0.00955   0.0064  0.0115  1.0000  -8.7989   0.0000   0.2301
  13.000   1.4016   0.01447   0.00969   0.0066  0.0114  1.0000  -8.9211   0.0000   0.2298
  13.100   1.4108   0.01462   0.00984   0.0069  0.0112  1.0000  -9.0432   0.0000   0.2295
  13.200   1.4199   0.01477   0.00999   0.0071  0.0110  1.0000  -9.1652   0.0000   0.2292
  13.300   1.4288   0.01492   0.01015   0.0074  0.0108  1.0000  -9.2868   0.0000   0.2288
  13.400   1.4376   0.01510   0.01032   0.0077  0.0105  1.0000  -9.4078   0.0000   0.2285
  13.500   1.4462   0.01528   0.01050   0.0080  0.0103  1.0000  -9.5277   0.0000   0.2281
  13.600   1.4545   0.01549   0.01070   0.0084  0.0099  1.0000  -9.6461   0.0000   0.2278
  13.700   1.4626   0.01571   0.01092   0.0088  0.0096  1.0000  -9.7624   0.0000   0.2274
  13.800   1.4703   0.01596   0.01117   0.0092  0.0091  1.0000  -9.8749   0.0000   0.2269
  13.900   1.4775   0.01625   0.01147   0.0097  0.0084  1.0000  -9.9799   0.0000   0.2264
  14.000   1.4847   0.01654   0.01178   0.0103  0.0080  1.0000  -10.0842   0.0000   0.2259
  14.100   1.4919   0.01681   0.01208   0.0108  0.0078  1.0000  -10.1912   0.0000   0.2255
  14.200   1.4992   0.01708   0.01238   0.0113  0.0077  1.0000  -10.2996   0.0000   0.2250
  14.300   1.5063   0.01736   0.01269   0.0118  0.0076  1.0000  -10.4078   0.0000   0.2245
  14.400   1.5132   0.01763   0.01300   0.0123  0.0075  1.0000  -10.5163   0.0000   0.2240
  14.500   1.5200   0.01791   0.01331   0.0129  0.0074  1.0000  -10.6245   0.0000   0.2235
  14.600   1.5266   0.01820   0.01362   0.0134  0.0073  1.0000  -10.7320   0.0000   0.2230
  14.700   1.5330   0.01849   0.01395   0.0140  0.0073  1.0000  -10.8385   0.0000   0.2225
  14.800   1.5391   0.01879   0.01428   0.0147  0.0072  1.0000  -10.9438   0.0000   0.2219
  14.900   1.5448   0.01911   0.01463   0.0154  0.0072  1.0000  -11.0467   0.0000   0.2213
  15.000   1.5497   0.01942   0.01498   0.0162  0.0072  1.0000  -11.1454   0.0000   0.2206
  15.100   1.5538   0.01974   0.01533   0.0171  0.0071  1.0000  -11.2383   0.0000   0.2199
  15.200   1.5572   0.02007   0.01570   0.0182  0.0071  1.0000  -11.3277   0.0000   0.2190
  15.300   1.5605   0.02043   0.01609   0.0192  0.0071  1.0000  -11.4159   0.0000   0.2182
  15.400   1.5636   0.02080   0.01650   0.0202  0.0070  1.0000  -11.5023   0.0000   0.2174
  15.500   1.5663   0.02120   0.01694   0.0212  0.0070  1.0000  -11.5868   0.0000   0.2166
  15.600   1.5689   0.02163   0.01740   0.0222  0.0070  1.0000  -11.6695   0.0000   0.2158
  15.700   1.5712   0.02208   0.01790   0.0231  0.0070  1.0000  -11.7508   0.0000   0.2151
  15.800   1.5731   0.02256   0.01842   0.0241  0.0069  1.0000  -11.8283   0.0000   0.2143
  15.900   1.5747   0.02308   0.01898   0.0250  0.0069  1.0000  -11.9039   0.0000   0.2135
  16.000   1.5759   0.02364   0.01958   0.0259  0.0069  1.0000  -11.9766   0.0000   0.2128
  16.100   1.5786   0.02413   0.02011   0.0266  0.0069  1.0000  -12.0626   0.0000   0.2121
  16.200   1.5819   0.02458   0.02058   0.0272  0.0069  1.0000  -12.1552   0.0000   0.2116
  16.300   1.5852   0.02503   0.02106   0.0278  0.0069  1.0000  -12.2482   0.0000   0.2111
  16.400   1.5881   0.02552   0.02157   0.0284  0.0069  1.0000  -12.3385   0.0000   0.2105
  16.500   1.5911   0.02603   0.02211   0.0289  0.0069  1.0000  -12.4292   0.0000   0.2100
  16.600   1.5940   0.02656   0.02266   0.0293  0.0069  1.0000  -12.5198   0.0000   0.2096
  16.700   1.5966   0.02714   0.02326   0.0298  0.0069  1.0000  -12.6075   0.0000   0.2091
  16.800   1.5994   0.02772   0.02388   0.0302  0.0069  1.0000  -12.6966   0.0000   0.2087
  16.900   1.6015   0.02836   0.02454   0.0305  0.0069  1.0000  -12.7809   0.0000   0.2083
  17.000   1.6037   0.02900   0.02521   0.0309  0.0069  1.0000  -12.8656   0.0000   0.2079
  17.100   1.6055   0.02970   0.02593   0.0312  0.0069  1.0000  -12.9468   0.0000   0.2075
  17.200   1.6073   0.03042   0.02669   0.0314  0.0069  1.0000  -13.0275   0.0000   0.2071
  17.300   1.6090   0.03118   0.02747   0.0316  0.0069  1.0000  -13.1080   0.0000   0.2068
  17.400   1.6103   0.03200   0.02832   0.0317  0.0069  1.0000  -13.1843   0.0000   0.2065
  17.500   1.6119   0.03282   0.02917   0.0318  0.0069  1.0000  -13.2629   0.0000   0.2062
  17.600   1.6126   0.03375   0.03013   0.0318  0.0069  1.0000  -13.3341   0.0000   0.2060
  17.700   1.6138   0.03465   0.03106   0.0318  0.0069  1.0000  -13.4092   0.0000   0.2058
  17.800   1.6140   0.03570   0.03214   0.0317  0.0069  1.0000  -13.4748   0.0000   0.2056
  17.900   1.6147   0.03670   0.03317   0.0315  0.0069  1.0000  -13.5447   0.0000   0.2055
  18.000   1.6140   0.03787   0.03437   0.0313  0.0069  1.0000  -13.6017   0.0000   0.2053
  18.100   1.6138   0.03898   0.03551   0.0311  0.0069  1.0000  -13.6638   0.0000   0.2052
  18.200   1.6124   0.04029   0.03686   0.0308  0.0069  1.0000  -13.7131   0.0000   0.2051
  18.300   1.6117   0.04153   0.03813   0.0305  0.0068  1.0000  -13.7694   0.0000   0.2051
  18.400   1.6095   0.04302   0.03965   0.0299  0.0068  1.0000  -13.8102   0.0000   0.2051
  18.500   1.6081   0.04440   0.04107   0.0295  0.0068  1.0000  -13.8584   0.0000   0.2051
  18.600   1.6050   0.04606   0.04277   0.0288  0.0068  1.0000  -13.8892   0.0000   0.2052
  18.700   1.6024   0.04766   0.04441   0.0282  0.0068  1.0000  -13.9247   0.0000   0.2053
  18.800   1.5985   0.04948   0.04626   0.0274  0.0068  1.0000  -13.9463   0.0000   0.2055
  18.900   1.5940   0.05140   0.04823   0.0266  0.0068  1.0000  -13.9612   0.0000   0.2057
  19.000   1.5896   0.05329   0.05016   0.0258  0.0068  1.0000  -13.9770   0.0000   0.2059
  19.100   1.5825   0.05560   0.05251   0.0247  0.0068  1.0000  -13.9643   0.0000   0.2062
  19.200   1.5764   0.05773   0.05469   0.0238  0.0068  1.0000  -13.9606   0.0000   0.2065
  19.300   1.5680   0.06027   0.05728   0.0226  0.0068  1.0000  -13.9325   0.0000   0.2069
  19.400   1.5582   0.06308   0.06014   0.0212  0.0068  1.0000  -13.8883   0.0000   0.2074
  19.500   1.5500   0.06563   0.06274   0.0200  0.0068  1.0000  -13.8599   0.0000   0.2078
  19.600   1.5381   0.06884   0.06600   0.0184  0.0068  1.0000  -13.7897   0.0000   0.2085
  19.700   1.5244   0.07237   0.06961   0.0166  0.0068  1.0000  -13.6975   0.0000   0.2093
  19.800   1.5106   0.07593   0.07322   0.0148  0.0068  1.0000  -13.6025   0.0000   0.2101
  19.900   1.4974   0.07938   0.07673   0.0131  0.0068  1.0000  -13.5131   0.0000   0.2109
  20.000   1.4778   0.08387   0.08129   0.0108  0.0068  1.0000  -13.3497   0.0000   0.2120


