xflr5 v6.38

 Calculated polar for: EPPLER 857 AIRFOIL

 1 1 Reynolds number fixed          Mach number fixed         

 xtrf =   1.000 (top)        1.000 (bottom)
 Mach =   0.000     Re =     3.000 e 6     Ncrit =   9.000

  alpha     CL        CD       CDp       Cm    Top Xtr Bot Xtr   Cpmin    Chinge    XCp    
 ------- -------- --------- --------- -------- ------- ------- -------- --------- ---------
  -5.000   0.0558   0.00754   0.00203  -0.1288  0.4841  0.1263  -1.5234   0.0000   2.6411
  -4.800   0.0758   0.00736   0.00192  -0.1285  0.4780  0.1545  -1.4109   0.0000   2.0020
  -4.600   0.0969   0.00728   0.00184  -0.1283  0.4712  0.1671  -1.2976   0.0000   1.6164
  -4.400   0.1176   0.00713   0.00176  -0.1280  0.4636  0.1946  -1.1882   0.0000   1.3717
  -4.200   0.1387   0.00703   0.00170  -0.1278  0.4560  0.2142  -1.0815   0.0000   1.1975
  -4.000   0.1590   0.00683   0.00161  -0.1275  0.4506  0.2462  -1.0160   0.0000   1.0732
  -3.800   0.1793   0.00659   0.00153  -0.1273  0.4501  0.2885  -0.9513   0.0000   0.9769
  -3.600   0.2014   0.00655   0.00151  -0.1272  0.4494  0.2989  -0.9561   0.0000   0.8955
  -3.400   0.2230   0.00646   0.00148  -0.1270  0.4483  0.3204  -0.9754   0.0000   0.8312
  -3.200   0.2448   0.00640   0.00147  -0.1269  0.4468  0.3330  -0.9949   0.0000   0.7779
  -3.000   0.2669   0.00640   0.00146  -0.1268  0.4447  0.3372  -1.0146   0.0000   0.7328
  -2.800   0.2890   0.00642   0.00145  -0.1267  0.4416  0.3398  -1.0344   0.0000   0.6947
  -2.600   0.3109   0.00645   0.00145  -0.1266  0.4376  0.3454  -1.0540   0.0000   0.6621
  -2.400   0.3325   0.00646   0.00146  -0.1264  0.4327  0.3621  -1.0735   0.0000   0.6341
  -2.200   0.3539   0.00646   0.00148  -0.1263  0.4269  0.3738  -1.0929   0.0000   0.6096
  -2.000   0.3758   0.00650   0.00149  -0.1262  0.4199  0.3797  -1.1125   0.0000   0.5876
  -1.800   0.3976   0.00653   0.00150  -0.1260  0.4125  0.3832  -1.1322   0.0000   0.5681
  -1.600   0.4195   0.00657   0.00152  -0.1259  0.4067  0.3854  -1.1519   0.0000   0.5505
  -1.400   0.4415   0.00659   0.00153  -0.1258  0.4037  0.3868  -1.1717   0.0000   0.5346
  -1.200   0.4637   0.00661   0.00154  -0.1257  0.4035  0.3878  -1.1919   0.0000   0.5202
  -1.000   0.4859   0.00662   0.00154  -0.1256  0.4033  0.3885  -1.2121   0.0000   0.5071
  -0.800   0.5080   0.00663   0.00155  -0.1256  0.4030  0.3891  -1.2324   0.0000   0.4952
  -0.600   0.5302   0.00665   0.00157  -0.1255  0.4026  0.3896  -1.2526   0.0000   0.4842
  -0.400   0.5523   0.00667   0.00158  -0.1254  0.4021  0.3899  -1.2729   0.0000   0.4741
  -0.200   0.5745   0.00669   0.00160  -0.1254  0.4015  0.3901  -1.2933   0.0000   0.4648
   0.000   0.5965   0.00671   0.00161  -0.1253  0.4007  0.3949  -1.3137   0.0000   0.4562
   0.200   0.6183   0.00670   0.00164  -0.1252  0.3995  0.4094  -1.3365   0.0000   0.4483
   0.400   0.6400   0.00670   0.00168  -0.1251  0.3980  0.4212  -1.3593   0.0000   0.4408
   0.600   0.6617   0.00673   0.00171  -0.1250  0.3958  0.4266  -1.3821   0.0000   0.4339
   0.800   0.6832   0.00677   0.00175  -0.1248  0.3931  0.4305  -1.4049   0.0000   0.4274
   1.000   0.7045   0.00683   0.00180  -0.1246  0.3899  0.4336  -1.4276   0.0000   0.4212
   1.200   0.7257   0.00691   0.00184  -0.1244  0.3864  0.4359  -1.4501   0.0000   0.4154
   1.400   0.7468   0.00699   0.00189  -0.1242  0.3824  0.4376  -1.4726   0.0000   0.4100
   1.600   0.7681   0.00707   0.00194  -0.1240  0.3777  0.4388  -1.4952   0.0000   0.4048
   1.800   0.7893   0.00714   0.00198  -0.1238  0.3725  0.4396  -1.5178   0.0000   0.3999
   2.000   0.8103   0.00722   0.00204  -0.1236  0.3676  0.4403  -1.5403   0.0000   0.3952
   2.200   0.8313   0.00730   0.00210  -0.1233  0.3633  0.4408  -1.5626   0.0000   0.3908
   2.400   0.8521   0.00738   0.00217  -0.1230  0.3597  0.4411  -1.5848   0.0000   0.3865
   2.800   0.8953   0.00747   0.00227  -0.1228  0.3584  0.4416  -1.6314   0.0000   0.3787
   3.000   0.9171   0.00751   0.00231  -0.1227  0.3583  0.4418  -1.6549   0.0000   0.3751
   3.200   0.9387   0.00755   0.00236  -0.1226  0.3582  0.4420  -1.6784   0.0000   0.3716
   3.400   0.9603   0.00759   0.00241  -0.1225  0.3582  0.4435  -1.7018   0.0000   0.3683
   3.600   0.9816   0.00762   0.00245  -0.1224  0.3581  0.4483  -1.7251   0.0000   0.3650
   3.800   1.0028   0.00765   0.00251  -0.1222  0.3579  0.4551  -1.7483   0.0000   0.3620
   4.000   1.0238   0.00768   0.00257  -0.1220  0.3578  0.4638  -1.7715   0.0000   0.3590
   4.200   1.0448   0.00771   0.00263  -0.1218  0.3577  0.4717  -1.7946   0.0000   0.3561
   4.400   1.0657   0.00774   0.00270  -0.1216  0.3575  0.4778  -1.8178   0.0000   0.3533
   4.600   1.0867   0.00777   0.00276  -0.1215  0.3573  0.4828  -1.8416   0.0000   0.3507
   4.800   1.1077   0.00781   0.00283  -0.1213  0.3570  0.4870  -1.8679   0.0000   0.3481
   5.000   1.1287   0.00785   0.00289  -0.1211  0.3567  0.4902  -1.8942   0.0000   0.3456
   5.200   1.1498   0.00790   0.00295  -0.1209  0.3563  0.4924  -1.9206   0.0000   0.3432
   5.400   1.1708   0.00795   0.00301  -0.1208  0.3558  0.4940  -1.9471   0.0000   0.3409
   5.600   1.1918   0.00801   0.00308  -0.1206  0.3552  0.4950  -1.9735   0.0000   0.3386
   5.800   1.2127   0.00806   0.00315  -0.1204  0.3545  0.4957  -2.0000   0.0000   0.3364
   6.000   1.2335   0.00812   0.00322  -0.1203  0.3535  0.4976  -2.0265   0.0000   0.3343
   6.200   1.2541   0.00818   0.00330  -0.1200  0.3523  0.5059  -2.0528   0.0000   0.3322
   6.400   1.2744   0.00824   0.00338  -0.1198  0.3506  0.5161  -2.0789   0.0000   0.3302
   6.600   1.2943   0.00831   0.00347  -0.1194  0.3484  0.5253  -2.1047   0.0000   0.3282
   6.800   1.3136   0.00840   0.00357  -0.1190  0.3455  0.5330  -2.1300   0.0000   0.3262
   7.000   1.3323   0.00852   0.00368  -0.1185  0.3419  0.5398  -2.1548   0.0000   0.3242
   7.200   1.3506   0.00865   0.00380  -0.1179  0.3378  0.5451  -2.1793   0.0000   0.3222
   7.400   1.3690   0.00879   0.00392  -0.1173  0.3330  0.5487  -2.2039   0.0000   0.3203
   7.600   1.3876   0.00892   0.00404  -0.1168  0.3282  0.5511  -2.2285   0.0000   0.3184
   7.800   1.4059   0.00904   0.00417  -0.1162  0.3236  0.5645  -2.2528   0.0000   0.3166
   8.000   1.4233   0.00916   0.00434  -0.1154  0.3189  0.5811  -2.2762   0.0000   0.3147
   8.200   1.4395   0.00929   0.00451  -0.1144  0.3147  0.5939  -2.2987   0.0000   0.3128
   8.400   1.4587   0.00935   0.00461  -0.1140  0.3144  0.6027  -2.3245   0.0000   0.3111
   8.600   1.4781   0.00942   0.00470  -0.1136  0.3142  0.6072  -2.3505   0.0000   0.3095
   8.800   1.4974   0.00948   0.00481  -0.1132  0.3140  0.6262  -2.3763   0.0000   0.3079
   9.000   1.5165   0.00953   0.00493  -0.1128  0.3136  0.6440  -2.4020   0.0000   0.3064
   9.200   1.5356   0.00959   0.00504  -0.1124  0.3132  0.6573  -2.4300   0.0000   0.3049
   9.400   1.5547   0.00967   0.00516  -0.1121  0.3126  0.6707  -2.4591   0.0000   0.3034
   9.600   1.5733   0.00973   0.00530  -0.1116  0.3119  0.6983  -2.4877   0.0000   0.3019
   9.800   1.5918   0.00981   0.00543  -0.1111  0.3111  0.7162  -2.5162   0.0000   0.3004
  10.000   1.6095   0.00987   0.00559  -0.1105  0.3096  0.7533  -2.5525   0.0000   0.2989
  10.200   1.6257   0.00996   0.00576  -0.1096  0.3068  0.7968  -2.5921   0.0000   0.2973
  10.400   1.6431   0.00991   0.00601  -0.1090  0.3025  0.9616  -2.6386   0.0000   0.2958
  10.600   1.6602   0.01013   0.00623  -0.1084  0.2982  1.0000  -2.6858   0.0000   0.2944
  10.800   1.6738   0.01039   0.00647  -0.1071  0.2937  1.0000  -2.7287   0.0000   0.2928
  11.000   1.6864   0.01068   0.00673  -0.1057  0.2881  1.0000  -2.7707   0.0000   0.2910
  11.200   1.6998   0.01095   0.00698  -0.1044  0.2802  1.0000  -2.8209   0.0000   0.2894
  11.400   1.7147   0.01119   0.00722  -0.1034  0.2745  1.0000  -2.8737   0.0000   0.2879
  11.600   1.7319   0.01135   0.00740  -0.1028  0.2739  1.0000  -2.9302   0.0000   0.2866
  11.800   1.7489   0.01152   0.00759  -0.1022  0.2733  1.0000  -2.9868   0.0000   0.2853
  12.000   1.7656   0.01171   0.00780  -0.1016  0.2724  1.0000  -3.0489   0.0000   0.2840
  12.200   1.7808   0.01194   0.00804  -0.1007  0.2704  1.0000  -3.1133   0.0000   0.2826
  12.400   1.7902   0.01235   0.00843  -0.0989  0.2654  1.0000  -3.1678   0.0000   0.2809
  12.600   1.7945   0.01300   0.00901  -0.0964  0.2556  1.0000  -3.2135   0.0000   0.2790
  12.800   1.8018   0.01358   0.00953  -0.0945  0.2450  1.0000  -3.2647   0.0000   0.2773
  13.000   1.8128   0.01401   0.00995  -0.0931  0.2359  1.0000  -3.3289   0.0000   0.2758
  13.200   1.8239   0.01441   0.01037  -0.0917  0.2346  1.0000  -3.3992   0.0000   0.2744
  13.400   1.8345   0.01486   0.01082  -0.0904  0.2316  1.0000  -3.4692   0.0000   0.2729
  13.600   1.8316   0.01592   0.01179  -0.0873  0.2188  1.0000  -3.5102   0.0000   0.2709
  13.800   1.8216   0.01733   0.01311  -0.0834  0.1994  1.0000  -3.5357   0.0000   0.2686
  14.000   1.8175   0.01863   0.01434  -0.0806  0.1880  1.0000  -3.5736   0.0000   0.2666
  14.200   1.8015   0.02068   0.01631  -0.0766  0.1729  1.0000  -3.5847   0.0000   0.2644
  14.400   1.7986   0.02213   0.01771  -0.0744  0.1597  1.0000  -3.6247   0.0000   0.2627
  14.600   1.7846   0.02439   0.01993  -0.0714  0.1506  1.0000  -3.6447   0.0000   0.2609
  14.800   1.7748   0.02650   0.02200  -0.0690  0.1391  1.0000  -3.6872   0.0000   0.2593
  15.000   1.7741   0.02810   0.02362  -0.0677  0.1326  1.0000  -3.7725   0.0000   0.2580
  15.200   1.7769   0.02944   0.02496  -0.0666  0.1292  1.0000  -3.8720   0.0000   0.2568
  15.400   1.7673   0.03185   0.02740  -0.0649  0.1249  1.0000  -3.9227   0.0000   0.2556
  15.600   1.7581   0.03414   0.02967  -0.0633  0.1193  1.0000  -3.9749   0.0000   0.2543
  15.800   1.7501   0.03647   0.03200  -0.0619  0.1131  1.0000  -4.0313   0.0000   0.2532
  16.000   1.7393   0.03933   0.03492  -0.0608  0.1067  1.0000  -4.0757   0.0000   0.2522
  16.200   1.7413   0.04097   0.03659  -0.0602  0.1033  1.0000  -4.1736   0.0000   0.2513
  16.400   1.7384   0.04313   0.03876  -0.0594  0.1005  1.0000  -4.2520   0.0000   0.2504
  16.600   1.7205   0.04698   0.04267  -0.0586  0.0979  1.0000  -4.2656   0.0000   0.2497
  16.800   1.7098   0.04996   0.04564  -0.0577  0.0929  1.0000  -4.3100   0.0000   0.2489
  17.000   1.6858   0.05469   0.05045  -0.0572  0.0907  1.0000  -4.2952   0.0000   0.2484
  17.200   1.6776   0.05755   0.05331  -0.0567  0.0847  1.0000  -4.3485   0.0000   0.2478
  17.400   1.6750   0.05986   0.05563  -0.0564  0.0785  1.0000  -4.4272   0.0000   0.2472
  17.600   1.6720   0.06234   0.05815  -0.0563  0.0776  1.0000  -4.5039   0.0000   0.2466
  17.800   1.6490   0.06722   0.06314  -0.0564  0.0771  1.0000  -4.4893   0.0000   0.2465
  18.000   1.6488   0.06936   0.06530  -0.0563  0.0752  1.0000  -4.5784   0.0000   0.2460
  18.200   1.6431   0.07196   0.06791  -0.0563  0.0723  1.0000  -4.6429   0.0000   0.2455
  18.400   1.6088   0.07837   0.07446  -0.0569  0.0723  1.0000  -4.5710   0.0000   0.2460
  18.600   1.6009   0.08151   0.07759  -0.0571  0.0687  1.0000  -4.6233   0.0000   0.2458
  18.800   1.5957   0.08437   0.08042  -0.0574  0.0645  1.0000  -4.6876   0.0000   0.2456
  19.000   1.5928   0.08701   0.08306  -0.0577  0.0596  1.0000  -4.7630   0.0000   0.2453
  19.200   1.5887   0.08991   0.08600  -0.0582  0.0559  1.0000  -4.8325   0.0000   0.2452
  19.400   1.5521   0.09741   0.09365  -0.0598  0.0562  1.0000  -4.7382   0.0000   0.2465
  19.600   1.5557   0.09930   0.09556  -0.0602  0.0552  1.0000  -4.8448   0.0000   0.2461
  19.800   1.5590   0.10121   0.09748  -0.0607  0.0541  1.0000  -4.9509   0.0000   0.2458
  20.000   1.5608   0.10332   0.09958  -0.0612  0.0520  1.0000  -5.0500   0.0000   0.2456


