xflr5 v6.38

 Calculated polar for: EPPLER 856 AIRFOIL

 1 1 Reynolds number fixed          Mach number fixed         

 xtrf =   1.000 (top)        1.000 (bottom)
 Mach =   0.000     Re =     3.000 e 6     Ncrit =   9.000

  alpha     CL        CD       CDp       Cm    Top Xtr Bot Xtr   Cpmin    Chinge    XCp    
 ------- -------- --------- --------- -------- ------- ------- -------- --------- ---------
  -5.000   0.0307   0.00730   0.00189  -0.1282  0.5339  0.1010  -1.7065   0.0000   4.5481
  -4.800   0.0520   0.00722   0.00182  -0.1281  0.5272  0.1175  -1.5683   0.0000   2.7810
  -4.600   0.0729   0.00706   0.00172  -0.1279  0.5193  0.1368  -1.4354   0.0000   2.0513
  -4.400   0.0939   0.00688   0.00162  -0.1278  0.5098  0.1677  -1.3057   0.0000   1.6456
  -4.200   0.1155   0.00677   0.00155  -0.1278  0.5018  0.1920  -1.1772   0.0000   1.3821
  -3.800   0.1588   0.00636   0.00138  -0.1278  0.4997  0.2553  -0.9549   0.0000   1.0708
  -3.600   0.1804   0.00618   0.00131  -0.1278  0.4980  0.2929  -0.8870   0.0000   0.9711
  -3.400   0.2029   0.00614   0.00129  -0.1278  0.4956  0.3034  -0.8338   0.0000   0.8905
  -3.200   0.2249   0.00605   0.00126  -0.1278  0.4924  0.3303  -0.8504   0.0000   0.8269
  -3.000   0.2470   0.00601   0.00124  -0.1278  0.4883  0.3450  -0.8669   0.0000   0.7745
  -2.800   0.2692   0.00603   0.00123  -0.1278  0.4835  0.3496  -0.8836   0.0000   0.7303
  -2.600   0.2912   0.00603   0.00123  -0.1278  0.4783  0.3699  -0.9002   0.0000   0.6932
  -2.400   0.3132   0.00599   0.00124  -0.1277  0.4724  0.3875  -0.9167   0.0000   0.6614
  -2.200   0.3356   0.00601   0.00124  -0.1278  0.4657  0.3929  -0.9335   0.0000   0.6333
  -2.000   0.3581   0.00604   0.00125  -0.1278  0.4596  0.3958  -0.9518   0.0000   0.6087
  -1.800   0.3807   0.00607   0.00125  -0.1278  0.4547  0.3976  -0.9708   0.0000   0.5870
  -1.600   0.4036   0.00608   0.00126  -0.1279  0.4536  0.3989  -0.9902   0.0000   0.5676
  -1.400   0.4266   0.00609   0.00126  -0.1280  0.4533  0.4000  -1.0098   0.0000   0.5502
  -1.200   0.4495   0.00610   0.00126  -0.1282  0.4530  0.4005  -1.0294   0.0000   0.5346
  -1.000   0.4724   0.00610   0.00127  -0.1283  0.4525  0.4050  -1.0489   0.0000   0.5206
  -0.800   0.4952   0.00608   0.00127  -0.1284  0.4519  0.4186  -1.0685   0.0000   0.5079
  -0.600   0.5178   0.00606   0.00130  -0.1285  0.4511  0.4306  -1.0880   0.0000   0.4963
  -0.400   0.5404   0.00605   0.00132  -0.1285  0.4499  0.4382  -1.1075   0.0000   0.4857
  -0.200   0.5630   0.00606   0.00134  -0.1286  0.4483  0.4428  -1.1271   0.0000   0.4759
   0.000   0.5854   0.00609   0.00136  -0.1286  0.4458  0.4457  -1.1467   0.0000   0.4669
   0.200   0.6076   0.00614   0.00138  -0.1286  0.4425  0.4479  -1.1661   0.0000   0.4585
   0.400   0.6296   0.00620   0.00141  -0.1286  0.4383  0.4494  -1.1854   0.0000   0.4507
   0.600   0.6514   0.00627   0.00143  -0.1285  0.4337  0.4504  -1.2046   0.0000   0.4434
   0.800   0.6733   0.00633   0.00146  -0.1284  0.4289  0.4510  -1.2238   0.0000   0.4366
   1.000   0.6953   0.00639   0.00149  -0.1284  0.4237  0.4514  -1.2431   0.0000   0.4303
   1.200   0.7172   0.00645   0.00153  -0.1283  0.4184  0.4518  -1.2623   0.0000   0.4243
   1.400   0.7391   0.00651   0.00157  -0.1283  0.4141  0.4521  -1.2815   0.0000   0.4186
   1.600   0.7610   0.00656   0.00161  -0.1282  0.4104  0.4523  -1.3007   0.0000   0.4133
   1.800   0.7828   0.00661   0.00165  -0.1281  0.4074  0.4524  -1.3198   0.0000   0.4082
   2.000   0.8051   0.00664   0.00169  -0.1282  0.4069  0.4526  -1.3396   0.0000   0.4034
   2.200   0.8274   0.00666   0.00171  -0.1282  0.4068  0.4556  -1.3596   0.0000   0.3989
   2.400   0.8497   0.00667   0.00174  -0.1283  0.4067  0.4602  -1.3819   0.0000   0.3946
   2.600   0.8719   0.00668   0.00177  -0.1283  0.4066  0.4658  -1.4042   0.0000   0.3906
   2.800   0.8941   0.00670   0.00181  -0.1283  0.4064  0.4726  -1.4265   0.0000   0.3867
   3.000   0.9161   0.00671   0.00185  -0.1283  0.4062  0.4798  -1.4488   0.0000   0.3830
   3.200   0.9380   0.00671   0.00190  -0.1283  0.4060  0.4866  -1.4710   0.0000   0.3794
   3.400   0.9597   0.00672   0.00194  -0.1282  0.4057  0.4924  -1.4932   0.0000   0.3760
   3.600   0.9813   0.00674   0.00199  -0.1281  0.4053  0.4971  -1.5153   0.0000   0.3727
   3.800   1.0028   0.00676   0.00203  -0.1280  0.4048  0.5005  -1.5374   0.0000   0.3695
   4.000   1.0243   0.00678   0.00207  -0.1279  0.4041  0.5027  -1.5596   0.0000   0.3665
   4.200   1.0457   0.00681   0.00211  -0.1278  0.4031  0.5043  -1.5817   0.0000   0.3636
   4.400   1.0669   0.00685   0.00216  -0.1276  0.4017  0.5053  -1.6038   0.0000   0.3607
   4.600   1.0880   0.00690   0.00220  -0.1274  0.3997  0.5060  -1.6258   0.0000   0.3580
   4.800   1.1086   0.00696   0.00226  -0.1272  0.3971  0.5075  -1.6475   0.0000   0.3553
   5.000   1.1288   0.00702   0.00233  -0.1268  0.3937  0.5156  -1.6689   0.0000   0.3527
   5.200   1.1484   0.00712   0.00240  -0.1264  0.3890  0.5257  -1.6899   0.0000   0.3501
   5.400   1.1676   0.00723   0.00250  -0.1259  0.3827  0.5347  -1.7106   0.0000   0.3476
   5.600   1.1871   0.00733   0.00259  -0.1254  0.3747  0.5424  -1.7313   0.0000   0.3451
   5.800   1.2064   0.00742   0.00269  -0.1249  0.3675  0.5491  -1.7519   0.0000   0.3428
   6.000   1.2259   0.00751   0.00279  -0.1245  0.3619  0.5544  -1.7726   0.0000   0.3405
   6.200   1.2470   0.00755   0.00285  -0.1243  0.3617  0.5581  -1.7951   0.0000   0.3384
   6.400   1.2681   0.00759   0.00292  -0.1242  0.3612  0.5604  -1.8196   0.0000   0.3363
   6.600   1.2890   0.00764   0.00299  -0.1240  0.3605  0.5664  -1.8447   0.0000   0.3343
   6.800   1.3097   0.00768   0.00308  -0.1238  0.3597  0.5828  -1.8696   0.0000   0.3323
   7.000   1.3303   0.00771   0.00318  -0.1236  0.3588  0.5970  -1.8970   0.0000   0.3304
   7.200   1.3505   0.00777   0.00327  -0.1233  0.3568  0.6078  -1.9365   0.0000   0.3285
   7.400   1.3699   0.00786   0.00338  -0.1229  0.3528  0.6140  -1.9837   0.0000   0.3266
   7.600   1.3884   0.00800   0.00350  -0.1223  0.3475  0.6203  -2.0302   0.0000   0.3247
   7.800   1.4061   0.00814   0.00364  -0.1216  0.3419  0.6392  -2.0760   0.0000   0.3228
   8.000   1.4234   0.00828   0.00379  -0.1208  0.3355  0.6545  -2.1296   0.0000   0.3208
   8.200   1.4411   0.00841   0.00393  -0.1201  0.3277  0.6660  -2.1844   0.0000   0.3190
   8.400   1.4589   0.00855   0.00407  -0.1193  0.3187  0.6759  -2.2397   0.0000   0.3172
   8.600   1.4780   0.00860   0.00419  -0.1189  0.3174  0.7014  -2.2974   0.0000   0.3155
   8.800   1.4967   0.00868   0.00431  -0.1184  0.3157  0.7194  -2.3619   0.0000   0.3138
   9.000   1.5141   0.00880   0.00447  -0.1176  0.3110  0.7438  -2.4294   0.0000   0.3121
   9.200   1.5247   0.00917   0.00478  -0.1156  0.2948  0.7711  -2.4856   0.0000   0.3099
   9.400   1.5379   0.00941   0.00504  -0.1141  0.2771  0.8118  -2.5469   0.0000   0.3080
   9.600   1.5516   0.00941   0.00522  -0.1126  0.2743  0.9009  -2.6205   0.0000   0.3060
   9.800   1.5686   0.00962   0.00550  -0.1119  0.2638  1.0000  -2.7052   0.0000   0.3045
  10.000   1.5748   0.01018   0.00593  -0.1093  0.2417  1.0000  -2.7676   0.0000   0.3021
  10.200   1.5868   0.01051   0.00621  -0.1076  0.2315  1.0000  -2.8431   0.0000   0.3002
  10.400   1.5912   0.01114   0.00672  -0.1047  0.2146  1.0000  -2.9026   0.0000   0.2979
  10.600   1.6017   0.01157   0.00708  -0.1029  0.1984  1.0000  -3.0280   0.0000   0.2960
  10.800   1.6079   0.01216   0.00759  -0.1004  0.1855  1.0000  -3.1485   0.0000   0.2939
  11.000   1.6093   0.01286   0.00819  -0.0972  0.1652  1.0000  -3.2511   0.0000   0.2914
  11.200   1.6122   0.01357   0.00882  -0.0943  0.1527  1.0000  -3.3608   0.0000   0.2892
  11.400   1.6116   0.01444   0.00958  -0.0910  0.1328  1.0000  -3.4569   0.0000   0.2868
  11.600   1.6158   0.01513   0.01027  -0.0885  0.1249  1.0000  -3.5749   0.0000   0.2848
  11.800   1.6160   0.01606   0.01112  -0.0856  0.1136  1.0000  -3.6759   0.0000   0.2826
  12.000   1.6208   0.01677   0.01182  -0.0834  0.1033  1.0000  -3.7983   0.0000   0.2807
  12.200   1.6288   0.01740   0.01244  -0.0817  0.0996  1.0000  -3.9370   0.0000   0.2790
  12.400   1.6282   0.01843   0.01344  -0.0791  0.0928  1.0000  -4.0378   0.0000   0.2770
  12.600   1.6270   0.01959   0.01456  -0.0765  0.0842  1.0000  -4.1361   0.0000   0.2751
  12.800   1.6333   0.02044   0.01540  -0.0750  0.0764  1.0000  -4.2704   0.0000   0.2736
  13.000   1.6352   0.02156   0.01653  -0.0731  0.0735  1.0000  -4.3860   0.0000   0.2719
  13.200   1.6350   0.02290   0.01784  -0.0711  0.0679  1.0000  -4.4914   0.0000   0.2703
  13.400   1.6307   0.02459   0.01952  -0.0690  0.0628  1.0000  -4.5773   0.0000   0.2687
  13.600   1.6339   0.02585   0.02078  -0.0676  0.0561  1.0000  -4.7001   0.0000   0.2673
  13.800   1.6409   0.02687   0.02182  -0.0667  0.0536  1.0000  -4.8440   0.0000   0.2661
  14.000   1.6410   0.02848   0.02346  -0.0654  0.0524  1.0000  -4.9540   0.0000   0.2649
  14.200   1.6435   0.02991   0.02491  -0.0643  0.0499  1.0000  -5.0770   0.0000   0.2637
  14.400   1.6407   0.03182   0.02682  -0.0630  0.0468  1.0000  -5.1729   0.0000   0.2625
  14.600   1.6345   0.03409   0.02911  -0.0617  0.0438  1.0000  -5.2501   0.0000   0.2614
  14.800   1.6342   0.03582   0.03084  -0.0607  0.0399  1.0000  -5.3595   0.0000   0.2604
  15.000   1.6288   0.03826   0.03333  -0.0598  0.0367  1.0000  -5.4408   0.0000   0.2595
  15.200   1.6312   0.03997   0.03506  -0.0592  0.0349  1.0000  -5.5660   0.0000   0.2586
  15.400   1.6346   0.04159   0.03671  -0.0587  0.0340  1.0000  -5.6980   0.0000   0.2577
  15.600   1.6351   0.04352   0.03867  -0.0581  0.0327  1.0000  -5.8148   0.0000   0.2569
  15.800   1.6245   0.04685   0.04205  -0.0576  0.0315  1.0000  -5.8672   0.0000   0.2563
  16.000   1.6224   0.04913   0.04434  -0.0571  0.0295  1.0000  -5.9689   0.0000   0.2555
  16.200   1.6194   0.05158   0.04680  -0.0567  0.0274  1.0000  -6.0651   0.0000   0.2549
  16.400   1.6050   0.05556   0.05085  -0.0566  0.0264  1.0000  -6.0925   0.0000   0.2546
  16.600   1.6045   0.05781   0.05311  -0.0564  0.0240  1.0000  -6.2039   0.0000   0.2540
  16.800   1.6060   0.05983   0.05515  -0.0563  0.0215  1.0000  -6.3278   0.0000   0.2534
  17.000   1.6075   0.06188   0.05724  -0.0562  0.0201  1.0000  -6.4520   0.0000   0.2528
  17.200   1.5918   0.06630   0.06176  -0.0566  0.0200  1.0000  -6.4681   0.0000   0.2529
  17.400   1.5930   0.06843   0.06391  -0.0567  0.0196  1.0000  -6.5919   0.0000   0.2524
  17.600   1.5951   0.07039   0.06590  -0.0567  0.0191  1.0000  -6.7219   0.0000   0.2519
  17.800   1.5961   0.07245   0.06800  -0.0568  0.0183  1.0000  -6.8454   0.0000   0.2514
  18.000   1.5937   0.07500   0.07058  -0.0570  0.0172  1.0000  -6.9470   0.0000   0.2511
  18.400   1.5688   0.08328   0.07899  -0.0585  0.0157  1.0000  -7.0130   0.0000   0.2515
  18.600   1.5681   0.08579   0.08150  -0.0588  0.0141  1.0000  -7.1247   0.0000   0.2513
  18.800   1.5683   0.08821   0.08392  -0.0592  0.0126  1.0000  -7.2429   0.0000   0.2510
  19.000   1.5688   0.09063   0.08636  -0.0597  0.0110  1.0000  -7.3630   0.0000   0.2508
  19.200   1.5665   0.09347   0.08925  -0.0604  0.0098  1.0000  -7.4640   0.0000   0.2507
  19.400   1.5430   0.09971   0.09560  -0.0622  0.0097  1.0000  -7.4102   0.0000   0.2519
  19.600   1.5469   0.10169   0.09760  -0.0627  0.0091  1.0000  -7.5542   0.0000   0.2516
  19.800   1.5510   0.10361   0.09954  -0.0632  0.0088  1.0000  -7.7017   0.0000   0.2513
  20.000   1.5548   0.10555   0.10150  -0.0638  0.0085  1.0000  -7.8479   0.0000   0.2511


