xflr5 v6.38

 Calculated polar for: EPPLER E850 AIRFOIL

 1 1 Reynolds number fixed          Mach number fixed         

 xtrf =   1.000 (top)        1.000 (bottom)
 Mach =   0.000     Re =     3.000 e 6     Ncrit =   9.000

  alpha     CL        CD       CDp       Cm    Top Xtr Bot Xtr   Cpmin    Chinge    XCp    
 ------- -------- --------- --------- -------- ------- ------- -------- --------- ---------
  -5.000  -0.2231   0.00745   0.00341  -0.0905  0.9579  0.0010  -4.5588   0.0000  -0.1602
  -4.800  -0.2001   0.00697   0.00284  -0.0908  0.9546  0.0010  -4.2185   0.0000  -0.2084
  -4.600  -0.1790   0.00669   0.00251  -0.0906  0.9523  0.0010  -3.8295   0.0000  -0.2610
  -4.400  -0.1587   0.00615   0.00182  -0.0902  0.9497  0.0014  -3.6878   0.0000  -0.3236
  -4.200  -0.1368   0.00595   0.00158  -0.0902  0.9472  0.0020  -3.3058   0.0000  -0.4148
  -4.000  -0.1145   0.00580   0.00140  -0.0903  0.9447  0.0029  -2.9003   0.0000  -0.5450
  -3.800  -0.0921   0.00558   0.00121  -0.0904  0.9420  0.0116  -2.5289   0.0000  -0.7379
  -3.600  -0.0698   0.00540   0.00106  -0.0906  0.9391  0.0271  -2.1195   0.0000  -1.0560
  -3.400  -0.0474   0.00518   0.00094  -0.0908  0.9357  0.0568  -1.7856   0.0000  -1.6770
  -3.200  -0.0244   0.00500   0.00084  -0.0912  0.9318  0.0847  -1.4635   0.0000  -3.5086
  -3.000  -0.0025   0.00478   0.00075  -0.0913  0.9295  0.1237  -1.1680   0.0000  -35.7402
  -2.800   0.0183   0.00450   0.00064  -0.0912  0.9276  0.1843  -0.8973   0.0000   5.2646
  -2.600   0.0381   0.00398   0.00051  -0.0911  0.9244  0.3028  -0.6516   0.0000   2.6504
  -2.400   0.0595   0.00377   0.00044  -0.0911  0.9202  0.3569  -0.5374   0.0000   1.7850
  -2.200   0.0813   0.00363   0.00038  -0.0911  0.9151  0.3945  -0.4459   0.0000   1.3741
  -2.000   0.1036   0.00360   0.00035  -0.0912  0.9090  0.4110  -0.3644   0.0000   1.1323
  -1.800   0.1265   0.00351   0.00033  -0.0914  0.9025  0.4374  -0.3068   0.0000   0.9747
  -1.600   0.1485   0.00347   0.00031  -0.0914  0.9008  0.4467  -0.2938   0.0000   0.8670
  -1.400   0.1702   0.00337   0.00031  -0.0914  0.8985  0.4803  -0.2988   0.0000   0.7879
  -1.200   0.1922   0.00330   0.00030  -0.0914  0.8951  0.5005  -0.3039   0.0000   0.7262
  -1.000   0.2144   0.00328   0.00029  -0.0914  0.8903  0.5121  -0.3091   0.0000   0.6768
  -0.800   0.2364   0.00326   0.00029  -0.0914  0.8834  0.5295  -0.3142   0.0000   0.6369
  -0.600   0.2580   0.00325   0.00029  -0.0913  0.8729  0.5403  -0.3191   0.0000   0.6039
  -0.400   0.2803   0.00323   0.00029  -0.0914  0.8683  0.5475  -0.3249   0.0000   0.5758
  -0.200   0.3027   0.00323   0.00030  -0.0914  0.8645  0.5514  -0.3311   0.0000   0.5518
   0.000   0.3244   0.00326   0.00029  -0.0913  0.8511  0.5530  -0.3379   0.0000   0.5310
   0.200   0.3452   0.00332   0.00029  -0.0910  0.8335  0.5541  -0.3654   0.0000   0.5130
   0.400   0.3660   0.00338   0.00030  -0.0906  0.8103  0.5645  -0.4071   0.0000   0.4971
   0.600   0.3826   0.00361   0.00033  -0.0894  0.7478  0.5760  -0.4555   0.0000   0.4829
   0.800   0.3990   0.00391   0.00042  -0.0881  0.6794  0.5846  -0.5062   0.0000   0.4701
   1.000   0.4167   0.00417   0.00051  -0.0872  0.6172  0.5915  -0.5767   0.0000   0.4585
   1.200   0.4353   0.00442   0.00060  -0.0865  0.5616  0.5973  -0.6702   0.0000   0.4479
   1.400   0.4519   0.00484   0.00072  -0.0855  0.4787  0.6016  -0.7684   0.0000   0.4382
   1.600   0.4658   0.00553   0.00091  -0.0840  0.3363  0.6043  -0.9268   0.0000   0.4292
   1.800   0.4844   0.00587   0.00102  -0.0834  0.2658  0.6061  -1.1902   0.0000   0.4210
   2.000   0.5024   0.00628   0.00117  -0.0827  0.1866  0.6151  -1.4641   0.0000   0.4133
   2.200   0.5213   0.00660   0.00132  -0.0822  0.1315  0.6300  -1.7608   0.0000   0.4062
   2.400   0.5404   0.00691   0.00147  -0.0817  0.0781  0.6419  -2.0751   0.0000   0.3996
   2.600   0.5594   0.00726   0.00166  -0.0811  0.0321  0.6508  -2.4168   0.0000   0.3934
   2.800   0.5800   0.00746   0.00180  -0.0808  0.0166  0.6561  -2.8488   0.0000   0.3876
   3.000   0.6010   0.00761   0.00193  -0.0806  0.0096  0.6611  -3.3085   0.0000   0.3823
   3.200   0.6218   0.00777   0.00209  -0.0804  0.0062  0.6777  -3.7868   0.0000   0.3773
   3.400   0.6423   0.00797   0.00232  -0.0801  0.0016  0.6912  -4.1770   0.0000   0.3725
   3.600   0.6616   0.00839   0.00289  -0.0793  0.0008  0.7015  -4.3286   0.0000   0.3676
   3.800   0.6821   0.00863   0.00317  -0.0789  0.0008  0.7079  -4.7705   0.0000   0.3633
   4.000   0.7022   0.00892   0.00354  -0.0785  0.0007  0.7227  -5.1906   0.0000   0.3592
   4.200   0.7215   0.00931   0.00405  -0.0778  0.0007  0.7400  -5.5626   0.0000   0.3551
   4.400   0.7401   0.00986   0.00472  -0.0769  0.0007  0.7526  -5.8895   0.0000   0.3511
   4.600   0.7579   0.01059   0.00561  -0.0759  0.0007  0.7668  -6.1719   0.0000   0.3472
   4.800   0.7750   0.01154   0.00677  -0.0746  0.0007  0.7917  -6.3759   0.0000   0.3432
   5.000   0.7917   0.01321   0.00867  -0.0731  0.0008  0.8096  -6.3676   0.0000   0.3391
   5.800   0.8570   0.02081   0.01751  -0.0659  0.0012  1.0000  -6.2963   0.0000   0.3232
   6.000   0.8729   0.02239   0.01924  -0.0647  0.0012  1.0000  -6.5987   0.0000   0.3202
   6.200   0.8870   0.02443   0.02147  -0.0630  0.0011  1.0000  -6.8023   0.0000   0.3170
   6.400   0.8994   0.02690   0.02415  -0.0611  0.0011  1.0000  -6.9245   0.0000   0.3138
   6.600   0.9098   0.02992   0.02739  -0.0588  0.0010  1.0000  -6.9451   0.0000   0.3104
   6.800   0.9183   0.03340   0.03109  -0.0563  0.0010  1.0000  -6.8902   0.0000   0.3070
   7.000   0.9247   0.03718   0.03508  -0.0536  0.0010  1.0000  -6.7849   0.0000   0.3036
   7.200   0.9289   0.04133   0.03943  -0.0509  0.0009  1.0000  -6.6161   0.0000   0.3003
   7.400   0.9307   0.04582   0.04412  -0.0482  0.0009  1.0000  -6.3870   0.0000   0.2972
   7.600   0.9291   0.05057   0.04905  -0.0454  0.0009  1.0000  -6.0984   0.0000   0.2943
   7.800   0.9241   0.05573   0.05438  -0.0428  0.0009  1.0000  -5.7282   0.0000   0.2917
   8.000   0.9142   0.06131   0.06012  -0.0403  0.0008  1.0000  -5.2586   0.0000   0.2895
   9.800   0.8350   0.09615   0.09538  -0.0460  0.0010  1.0000  -4.7686   0.0000   0.2992
  10.000   0.8289   0.10162   0.10084  -0.0497  0.0010  1.0000  -4.5896   0.0000   0.3039
  10.200   0.8244   0.10671   0.10593  -0.0527  0.0010  1.0000  -4.4394   0.0000   0.3077
  10.400   0.8209   0.11156   0.11077  -0.0554  0.0010  1.0000  -4.3103   0.0000   0.3111
  10.600   0.8184   0.11624   0.11544  -0.0579  0.0010  1.0000  -4.1978   0.0000   0.3142
  10.800   0.8163   0.12070   0.11990  -0.0602  0.0010  1.0000  -4.0979   0.0000   0.3171
  11.000   0.8145   0.12500   0.12419  -0.0623  0.0010  1.0000  -4.0080   0.0000   0.3197
  11.200   0.8136   0.12928   0.12847  -0.0645  0.0010  1.0000  -3.9282   0.0000   0.3223
  11.400   0.8134   0.13352   0.13271  -0.0666  0.0010  1.0000  -3.8567   0.0000   0.3247
  11.600   0.8138   0.13770   0.13689  -0.0686  0.0010  1.0000  -3.7911   0.0000   0.3270
  11.800   0.8146   0.14184   0.14102  -0.0706  0.0009  1.0000  -3.7285   0.0000   0.3292
  12.000   0.8158   0.14594   0.14512  -0.0726  0.0009  1.0000  -3.6659   0.0000   0.3313
  12.200   0.8172   0.15002   0.14919  -0.0746  0.0009  1.0000  -3.5974   0.0000   0.3334
  12.400   0.8187   0.15413   0.15330  -0.0766  0.0009  1.0000  -3.5109   0.0000   0.3355
  12.600   0.8197   0.15845   0.15762  -0.0786  0.0009  1.0000  -3.3613   0.0000   0.3377


