xflr5 v6.38

 Calculated polar for: EPPLER E851 AIRFOIL

 1 1 Reynolds number fixed          Mach number fixed         

 xtrf =   1.000 (top)        1.000 (bottom)
 Mach =   0.000     Re =     3.000 e 6     Ncrit =   9.000

  alpha     CL        CD       CDp       Cm    Top Xtr Bot Xtr   Cpmin    Chinge    XCp    
 ------- -------- --------- --------- -------- ------- ------- -------- --------- ---------
  -5.000  -0.1660   0.00667   0.00222  -0.1018  0.8865  0.0014  -4.3430   0.0000  -0.3709
  -4.800  -0.1448   0.00640   0.00185  -0.1016  0.8806  0.0019  -4.0673   0.0000  -0.4599
  -4.600  -0.1231   0.00626   0.00167  -0.1016  0.8735  0.0023  -3.6760   0.0000  -0.5843
  -4.400  -0.1008   0.00613   0.00150  -0.1017  0.8686  0.0030  -3.2977   0.0000  -0.7694
  -4.200  -0.0789   0.00587   0.00131  -0.1018  0.8677  0.0124  -2.9552   0.0000  -1.0514
  -4.000  -0.0566   0.00577   0.00120  -0.1019  0.8666  0.0178  -2.5605   0.0000  -1.5674
  -3.800  -0.0344   0.00561   0.00110  -0.1020  0.8650  0.0273  -2.1871   0.0000  -2.7400
  -3.600  -0.0125   0.00538   0.00099  -0.1022  0.8630  0.0577  -1.8871   0.0000  -7.9992
  -3.400   0.0094   0.00514   0.00087  -0.1023  0.8607  0.0935  -1.6002   0.0000  11.2600
  -3.200   0.0310   0.00486   0.00075  -0.1024  0.8580  0.1513  -1.3255   0.0000   3.5749
  -3.000   0.0527   0.00461   0.00065  -0.1025  0.8549  0.2027  -1.0694   0.0000   2.2081
  -2.800   0.0743   0.00439   0.00057  -0.1026  0.8513  0.2579  -0.8276   0.0000   1.6384
  -2.600   0.0953   0.00407   0.00048  -0.1027  0.8466  0.3373  -0.6421   0.0000   1.3319
  -2.400   0.1171   0.00394   0.00044  -0.1028  0.8404  0.3804  -0.5509   0.0000   1.1308
  -2.200   0.1397   0.00389   0.00042  -0.1029  0.8339  0.4059  -0.4605   0.0000   0.9896
  -2.000   0.1619   0.00375   0.00039  -0.1031  0.8321  0.4397  -0.3730   0.0000   0.8885
  -1.800   0.1846   0.00373   0.00037  -0.1032  0.8309  0.4462  -0.3679   0.0000   0.8106
  -1.600   0.2072   0.00368   0.00036  -0.1033  0.8292  0.4617  -0.3748   0.0000   0.7499
  -1.400   0.2297   0.00362   0.00035  -0.1035  0.8266  0.4783  -0.3817   0.0000   0.7013
  -1.200   0.2521   0.00359   0.00035  -0.1036  0.8228  0.4904  -0.3886   0.0000   0.6614
  -1.000   0.2744   0.00360   0.00034  -0.1036  0.8174  0.4941  -0.3954   0.0000   0.6279
  -0.800   0.2964   0.00361   0.00033  -0.1036  0.8107  0.5035  -0.4021   0.0000   0.5996
  -0.600   0.3181   0.00361   0.00033  -0.1035  0.8018  0.5201  -0.4085   0.0000   0.5754
  -0.400   0.3403   0.00360   0.00035  -0.1036  0.7934  0.5319  -0.4151   0.0000   0.5542
  -0.200   0.3630   0.00357   0.00036  -0.1037  0.7922  0.5399  -0.4221   0.0000   0.5354
   0.000   0.3857   0.00356   0.00036  -0.1039  0.7897  0.5438  -0.4295   0.0000   0.5188
   0.200   0.4082   0.00357   0.00037  -0.1039  0.7833  0.5458  -0.4371   0.0000   0.5040
   0.400   0.4295   0.00363   0.00037  -0.1037  0.7690  0.5470  -0.4451   0.0000   0.4908
   0.600   0.4504   0.00369   0.00038  -0.1035  0.7493  0.5534  -0.4649   0.0000   0.4789
   0.800   0.4708   0.00378   0.00041  -0.1031  0.7239  0.5647  -0.5060   0.0000   0.4680
   1.000   0.4916   0.00386   0.00044  -0.1028  0.7008  0.5743  -0.5478   0.0000   0.4581
   1.200   0.5110   0.00401   0.00050  -0.1023  0.6649  0.5821  -0.6006   0.0000   0.4489
   1.400   0.5278   0.00435   0.00061  -0.1012  0.5952  0.5886  -0.6510   0.0000   0.4404
   1.600   0.5408   0.00502   0.00082  -0.0995  0.4706  0.5936  -0.7198   0.0000   0.4325
   1.800   0.5587   0.00537   0.00094  -0.0987  0.4058  0.5971  -0.8134   0.0000   0.4251
   2.000   0.5770   0.00570   0.00107  -0.0980  0.3494  0.5993  -0.9105   0.0000   0.4182
   2.200   0.5952   0.00605   0.00121  -0.0974  0.2921  0.6052  -1.0095   0.0000   0.4118
   2.400   0.6135   0.00638   0.00136  -0.0967  0.2299  0.6208  -1.2045   0.0000   0.4057
   2.600   0.6321   0.00668   0.00151  -0.0961  0.1808  0.6333  -1.4560   0.0000   0.4000
   2.800   0.6497   0.00710   0.00171  -0.0954  0.1165  0.6427  -1.7185   0.0000   0.3946
   3.000   0.6691   0.00737   0.00187  -0.0949  0.0840  0.6488  -2.0037   0.0000   0.3895
   3.200   0.6889   0.00762   0.00201  -0.0945  0.0583  0.6524  -2.3040   0.0000   0.3847
   3.400   0.7084   0.00788   0.00218  -0.0941  0.0350  0.6654  -2.6158   0.0000   0.3802
   3.600   0.7284   0.00809   0.00236  -0.0937  0.0201  0.6808  -2.9594   0.0000   0.3759
   3.800   0.7489   0.00825   0.00251  -0.0934  0.0136  0.6928  -3.3649   0.0000   0.3719
   4.000   0.7699   0.00837   0.00265  -0.0933  0.0103  0.7010  -3.7941   0.0000   0.3681
   4.200   0.7898   0.00860   0.00284  -0.0929  0.0054  0.7108  -4.2265   0.0000   0.3644
   4.400   0.8098   0.00882   0.00310  -0.0925  0.0021  0.7308  -4.6073   0.0000   0.3608
   4.600   0.8301   0.00899   0.00333  -0.0921  0.0016  0.7455  -5.0292   0.0000   0.3575
   4.800   0.8504   0.00919   0.00360  -0.0918  0.0013  0.7574  -5.4765   0.0000   0.3542
   5.000   0.8699   0.00943   0.00394  -0.0912  0.0010  0.7855  -5.8652   0.0000   0.3510
   5.200   0.8864   0.01010   0.00481  -0.0899  0.0007  0.8028  -6.0035   0.0000   0.3474
   5.400   0.9059   0.01029   0.00510  -0.0895  0.0007  0.8343  -6.4815   0.0000   0.3445
   5.600   0.9245   0.01057   0.00549  -0.0887  0.0007  0.8648  -6.9275   0.0000   0.3416
   5.800   0.9414   0.01091   0.00598  -0.0876  0.0006  0.9052  -7.3293   0.0000   0.3385
   6.000   0.9574   0.01128   0.00655  -0.0863  0.0006  1.0000  -7.6998   0.0000   0.3353
   6.200   0.9748   0.01194   0.00730  -0.0853  0.0006  1.0000  -8.0603   0.0000   0.3325
   6.400   0.9917   0.01273   0.00819  -0.0842  0.0006  1.0000  -8.3909   0.0000   0.3298
   6.600   1.0083   0.01370   0.00929  -0.0831  0.0006  1.0000  -8.6818   0.0000   0.3270
   6.800   1.0247   0.01488   0.01061  -0.0819  0.0006  1.0000  -8.9378   0.0000   0.3244
   7.000   1.0407   0.01637   0.01228  -0.0806  0.0006  1.0000  -9.1319   0.0000   0.3217
   7.200   1.0555   0.01838   0.01452  -0.0791  0.0006  1.0000  -9.2131   0.0000   0.3190
   8.200   1.1120   0.02907   0.02630  -0.0694  0.0008  1.0000  -9.7537   0.0000   0.3056
   8.400   1.1180   0.03176   0.02921  -0.0669  0.0008  1.0000  -9.8166   0.0000   0.3029
   8.600   1.1195   0.03518   0.03289  -0.0638  0.0009  1.0000  -9.7298   0.0000   0.2999
   8.800   1.1108   0.04113   0.03915  -0.0592  0.0009  1.0000  -9.1270   0.0000   0.2962
   9.000   1.0976   0.04775   0.04604  -0.0546  0.0009  1.0000  -8.4491   0.0000   0.2925
   9.200   1.0864   0.05290   0.05138  -0.0509  0.0009  1.0000  -8.0696   0.0000   0.2895
   9.400   1.0734   0.05725   0.05588  -0.0475  0.0009  1.0000  -7.7997   0.0000   0.2868
   9.600   1.0562   0.06074   0.05948  -0.0433  0.0009  1.0000  -7.5703   0.0000   0.2835
   9.800   1.0363   0.06391   0.06275  -0.0396  0.0009  1.0000  -7.3638   0.0000   0.2806
  10.000   1.0152   0.06745   0.06638  -0.0371  0.0009  1.0000  -7.1403   0.0000   0.2787
  10.200   0.9939   0.07174   0.07076  -0.0359  0.0010  1.0000  -6.8744   0.0000   0.2781
  10.400   0.9702   0.07653   0.07564  -0.0361  0.0010  1.0000  -6.5809   0.0000   0.2789
  10.600   0.9442   0.08328   0.08247  -0.0386  0.0010  1.0000  -6.1339   0.0000   0.2824
  10.800   0.9085   0.09670   0.09597  -0.0487  0.0011  1.0000  -5.1887   0.0000   0.2950
  11.000   0.8931   0.10713   0.10639  -0.0564  0.0012  1.0000  -4.6673   0.0000   0.3046
  11.200   0.8837   0.11383   0.11308  -0.0604  0.0012  1.0000  -4.4057   0.0000   0.3097
  11.400   0.8770   0.11987   0.11911  -0.0638  0.0013  1.0000  -4.2038   0.0000   0.3139
  11.600   0.8721   0.12551   0.12474  -0.0668  0.0013  1.0000  -4.0374   0.0000   0.3176
  11.800   0.8687   0.13084   0.13007  -0.0695  0.0013  1.0000  -3.8960   0.0000   0.3209
  12.000   0.8664   0.13594   0.13516  -0.0721  0.0013  1.0000  -3.7737   0.0000   0.3239
  12.200   0.8649   0.14085   0.14006  -0.0746  0.0013  1.0000  -3.6641   0.0000   0.3268
  12.400   0.8642   0.14559   0.14480  -0.0770  0.0013  1.0000  -3.5660   0.0000   0.3294
  12.600   0.8642   0.15018   0.14939  -0.0793  0.0013  1.0000  -3.4784   0.0000   0.3319
  12.800   0.8648   0.15463   0.15383  -0.0815  0.0012  1.0000  -3.4011   0.0000   0.3342
  13.000   0.8659   0.15894   0.15815  -0.0836  0.0012  1.0000  -3.3329   0.0000   0.3364
  13.200   0.8675   0.16315   0.16235  -0.0857  0.0012  1.0000  -3.2731   0.0000   0.3384
  13.400   0.8694   0.16724   0.16644  -0.0878  0.0012  1.0000  -3.2208   0.0000   0.3403
  13.600   0.8718   0.17124   0.17044  -0.0898  0.0012  1.0000  -3.1757   0.0000   0.3422
  13.800   0.8745   0.17497   0.17417  -0.0917  0.0011  1.0000  -3.1378   0.0000   0.3439
  14.000   0.8776   0.17823   0.17743  -0.0937  0.0011  1.0000  -3.1075   0.0000   0.3455
  14.200   0.8809   0.18150   0.18069  -0.0956  0.0011  1.0000  -3.0829   0.0000   0.3470
  14.400   0.8845   0.18487   0.18406  -0.0974  0.0011  1.0000  -3.0637   0.0000   0.3485
  14.600   0.8882   0.18831   0.18750  -0.0993  0.0010  1.0000  -3.0496   0.0000   0.3499
  14.800   0.8921   0.19180   0.19098  -0.1012  0.0010  1.0000  -3.0407   0.0000   0.3512
  15.000   0.8962   0.19532   0.19450  -0.1030  0.0010  1.0000  -3.0368   0.0000   0.3525
  15.200   0.9003   0.19886   0.19805  -0.1048  0.0010  1.0000  -3.0379   0.0000   0.3538
  15.400   0.9046   0.20242   0.20161  -0.1066  0.0010  1.0000  -3.0439   0.0000   0.3550
  15.600   0.9090   0.20600   0.20519  -0.1084  0.0009  1.0000  -3.0547   0.0000   0.3561
  15.800   0.9134   0.20960   0.20878  -0.1102  0.0009  1.0000  -3.0708   0.0000   0.3572
  16.000   0.9179   0.21320   0.21239  -0.1119  0.0009  1.0000  -3.0915   0.0000   0.3583
  16.200   0.9224   0.21685   0.21603  -0.1137  0.0009  1.0000  -3.1130   0.0000   0.3593
  16.400   0.9268   0.22061   0.21979  -0.1155  0.0009  1.0000  -3.1198   0.0000   0.3604
  16.600   0.9312   0.22444   0.22362  -0.1172  0.0009  1.0000  -3.1211   0.0000   0.3614
  16.800   0.9356   0.22832   0.22751  -0.1190  0.0008  1.0000  -3.1182   0.0000   0.3625
  17.000   0.9398   0.23229   0.23148  -0.1208  0.0008  1.0000  -3.1046   0.0000   0.3635
  17.200   0.9439   0.23645   0.23564  -0.1226  0.0008  1.0000  -3.0620   0.0000   0.3646
  17.400   0.9445   0.24318   0.24235  -0.1249  0.0007  1.0000  -2.5250   0.0000   0.3668
  17.600   0.9490   0.24730   0.24647  -0.1266  0.0007  1.0000  -2.4996   0.0000   0.3677
  17.800   0.9535   0.25145   0.25062  -0.1283  0.0007  1.0000  -2.4750   0.0000   0.3686
  18.000   0.9579   0.25563   0.25481  -0.1300  0.0007  1.0000  -2.4514   0.0000   0.3695
  18.200   0.9623   0.25985   0.25903  -0.1317  0.0007  1.0000  -2.4286   0.0000   0.3703
  18.400   0.9667   0.26411   0.26329  -0.1334  0.0007  1.0000  -2.4065   0.0000   0.3712
  18.600   0.9709   0.26840   0.26758  -0.1350  0.0007  1.0000  -2.3848   0.0000   0.3720
  18.800   0.9751   0.27272   0.27191  -0.1367  0.0007  1.0000  -2.3634   0.0000   0.3728
  19.000   0.9792   0.27708   0.27627  -0.1384  0.0007  1.0000  -2.3426   0.0000   0.3736
  19.200   0.9832   0.28148   0.28067  -0.1400  0.0007  1.0000  -2.3223   0.0000   0.3744
  19.400   0.9870   0.28591   0.28510  -0.1416  0.0007  1.0000  -2.3023   0.0000   0.3752
  19.600   0.9907   0.29037   0.28957  -0.1432  0.0007  1.0000  -2.2826   0.0000   0.3760
  19.800   0.9943   0.29487   0.29407  -0.1449  0.0007  1.0000  -2.2631   0.0000   0.3768
  20.000   0.9977   0.29940   0.29860  -0.1464  0.0007  1.0000  -2.2515   0.0000   0.3776


