xflr5 v6.38

 Calculated polar for: EPPLER 855 AIRFOIL

 1 1 Reynolds number fixed          Mach number fixed         

 xtrf =   1.000 (top)        1.000 (bottom)
 Mach =   0.000     Re =     3.000 e 6     Ncrit =   9.000

  alpha     CL        CD       CDp       Cm    Top Xtr Bot Xtr   Cpmin    Chinge    XCp    
 ------- -------- --------- --------- -------- ------- ------- -------- --------- ---------
  -5.000  -0.0053   0.00707   0.00179  -0.1252  0.5987  0.0651  -2.0194   0.0000  -23.8193
  -4.800   0.0163   0.00690   0.00167  -0.1252  0.5948  0.0795  -1.8481   0.0000   8.0777
  -4.600   0.0379   0.00675   0.00158  -0.1252  0.5893  0.1013  -1.6823   0.0000   3.6206
  -4.400   0.0596   0.00668   0.00151  -0.1251  0.5826  0.1102  -1.5198   0.0000   2.3899
  -4.200   0.0810   0.00655   0.00142  -0.1251  0.5751  0.1359  -1.3641   0.0000   1.8228
  -4.000   0.1024   0.00638   0.00133  -0.1251  0.5662  0.1680  -1.2130   0.0000   1.4919
  -3.800   0.1242   0.00624   0.00125  -0.1251  0.5578  0.1986  -1.0651   0.0000   1.2733
  -3.600   0.1456   0.00593   0.00113  -0.1252  0.5540  0.2537  -0.9231   0.0000   1.1226
  -3.400   0.1677   0.00573   0.00106  -0.1253  0.5531  0.2965  -0.8308   0.0000   1.0074
  -3.200   0.1903   0.00564   0.00102  -0.1255  0.5518  0.3152  -0.7565   0.0000   0.9172
  -3.000   0.2127   0.00550   0.00099  -0.1256  0.5498  0.3488  -0.7080   0.0000   0.8470
  -2.800   0.2354   0.00548   0.00097  -0.1257  0.5470  0.3585  -0.7240   0.0000   0.7893
  -2.600   0.2580   0.00548   0.00096  -0.1258  0.5430  0.3681  -0.7399   0.0000   0.7417
  -2.400   0.2800   0.00540   0.00096  -0.1258  0.5381  0.3976  -0.7556   0.0000   0.7026
  -2.200   0.3023   0.00542   0.00096  -0.1258  0.5327  0.4065  -0.7714   0.0000   0.6689
  -2.000   0.3247   0.00546   0.00096  -0.1259  0.5260  0.4092  -0.7873   0.0000   0.6396
  -1.800   0.3472   0.00550   0.00096  -0.1259  0.5177  0.4101  -0.8032   0.0000   0.6140
  -1.600   0.3697   0.00554   0.00096  -0.1260  0.5098  0.4107  -0.8192   0.0000   0.5916
  -1.400   0.3925   0.00555   0.00096  -0.1261  0.5056  0.4148  -0.8353   0.0000   0.5716
  -1.200   0.4156   0.00553   0.00096  -0.1263  0.5051  0.4268  -0.8517   0.0000   0.5538
  -1.000   0.4385   0.00550   0.00098  -0.1264  0.5045  0.4407  -0.8681   0.0000   0.5379
  -0.800   0.4613   0.00547   0.00099  -0.1266  0.5037  0.4515  -0.8845   0.0000   0.5236
  -0.600   0.4843   0.00547   0.00101  -0.1267  0.5026  0.4568  -0.9009   0.0000   0.5106
  -0.400   0.5072   0.00549   0.00102  -0.1269  0.5010  0.4594  -0.9173   0.0000   0.4987
  -0.200   0.5300   0.00552   0.00103  -0.1270  0.4988  0.4609  -0.9338   0.0000   0.4879
   0.000   0.5527   0.00555   0.00105  -0.1271  0.4959  0.4616  -0.9501   0.0000   0.4779
   0.200   0.5751   0.00559   0.00106  -0.1271  0.4924  0.4621  -0.9664   0.0000   0.4688
   0.400   0.5974   0.00565   0.00109  -0.1272  0.4884  0.4624  -0.9837   0.0000   0.4603
   0.600   0.6197   0.00571   0.00111  -0.1272  0.4839  0.4626  -1.0018   0.0000   0.4524
   0.800   0.6419   0.00576   0.00113  -0.1272  0.4788  0.4628  -1.0199   0.0000   0.4451
   1.000   0.6642   0.00580   0.00115  -0.1272  0.4729  0.4667  -1.0381   0.0000   0.4383
   1.200   0.6864   0.00584   0.00118  -0.1273  0.4673  0.4714  -1.0562   0.0000   0.4319
   1.400   0.7086   0.00587   0.00122  -0.1273  0.4627  0.4772  -1.0744   0.0000   0.4259
   1.600   0.7309   0.00590   0.00126  -0.1273  0.4589  0.4838  -1.0926   0.0000   0.4202
   1.800   0.7535   0.00591   0.00129  -0.1274  0.4576  0.4903  -1.1111   0.0000   0.4149
   2.000   0.7763   0.00591   0.00133  -0.1276  0.4574  0.4959  -1.1299   0.0000   0.4099
   2.200   0.7990   0.00591   0.00136  -0.1277  0.4572  0.5008  -1.1487   0.0000   0.4052
   2.400   0.8217   0.00592   0.00139  -0.1279  0.4568  0.5052  -1.1676   0.0000   0.4007
   2.600   0.8444   0.00593   0.00143  -0.1280  0.4562  0.5092  -1.1864   0.0000   0.3965
   2.800   0.8671   0.00595   0.00147  -0.1281  0.4553  0.5122  -1.2053   0.0000   0.3924
   3.000   0.8897   0.00597   0.00150  -0.1282  0.4538  0.5141  -1.2242   0.0000   0.3886
   3.200   0.9120   0.00601   0.00154  -0.1283  0.4513  0.5152  -1.2429   0.0000   0.3849
   3.400   0.9341   0.00606   0.00158  -0.1283  0.4478  0.5159  -1.2615   0.0000   0.3814
   3.600   0.9556   0.00614   0.00163  -0.1282  0.4422  0.5164  -1.2798   0.0000   0.3779
   3.800   0.9762   0.00626   0.00170  -0.1279  0.4326  0.5239  -1.2975   0.0000   0.3746
   4.000   0.9971   0.00636   0.00177  -0.1278  0.4202  0.5335  -1.3157   0.0000   0.3715
   4.200   1.0185   0.00642   0.00185  -0.1277  0.4114  0.5428  -1.3360   0.0000   0.3684
   4.400   1.0407   0.00644   0.00191  -0.1277  0.4104  0.5505  -1.3571   0.0000   0.3656
   4.600   1.0628   0.00646   0.00197  -0.1278  0.4094  0.5572  -1.3808   0.0000   0.3628
   4.800   1.0848   0.00649   0.00203  -0.1278  0.4080  0.5628  -1.4185   0.0000   0.3602
   5.000   1.1059   0.00658   0.00210  -0.1276  0.4014  0.5667  -1.4651   0.0000   0.3575
   5.200   1.1234   0.00686   0.00224  -0.1268  0.3783  0.5692  -1.5080   0.0000   0.3548
   5.400   1.1438   0.00699   0.00234  -0.1265  0.3638  0.5707  -1.5561   0.0000   0.3523
   5.600   1.1642   0.00710   0.00243  -0.1263  0.3565  0.5830  -1.6126   0.0000   0.3498
   5.800   1.1815   0.00736   0.00262  -0.1254  0.3380  0.5978  -1.6653   0.0000   0.3473
   6.000   1.2007   0.00752   0.00277  -0.1250  0.3202  0.6100  -1.7212   0.0000   0.3450
   6.200   1.2149   0.00796   0.00306  -0.1236  0.2907  0.6186  -1.7811   0.0000   0.3423
   6.400   1.2266   0.00854   0.00341  -0.1217  0.2489  0.6235  -1.8379   0.0000   0.3396
   6.600   1.2380   0.00911   0.00378  -0.1198  0.2112  0.6295  -1.8948   0.0000   0.3369
   6.800   1.2505   0.00958   0.00412  -0.1182  0.1812  0.6466  -1.9540   0.0000   0.3344
   7.000   1.2657   0.00988   0.00437  -0.1170  0.1602  0.6610  -2.0355   0.0000   0.3320
   7.200   1.2771   0.01029   0.00468  -0.1150  0.1414  0.6721  -2.1114   0.0000   0.3294
   7.400   1.2919   0.01053   0.00489  -0.1137  0.1274  0.6789  -2.1961   0.0000   0.3271
   7.600   1.3031   0.01090   0.00520  -0.1117  0.1140  0.7001  -2.3087   0.0000   0.3245
   7.800   1.3172   0.01115   0.00545  -0.1103  0.1003  0.7193  -2.4509   0.0000   0.3222
   8.000   1.3301   0.01146   0.00575  -0.1087  0.0916  0.7315  -2.5934   0.0000   0.3199
   8.200   1.3408   0.01184   0.00610  -0.1067  0.0749  0.7614  -2.7286   0.0000   0.3175
   8.600   1.3607   0.01257   0.00683  -0.1024  0.0518  0.8253  -2.9991   0.0000   0.3126
   8.800   1.3703   0.01269   0.00713  -0.1001  0.0482  0.9172  -3.1371   0.0000   0.3101
   9.000   1.3818   0.01306   0.00753  -0.0984  0.0403  1.0000  -3.2848   0.0000   0.3080
   9.200   1.3941   0.01340   0.00785  -0.0968  0.0329  1.0000  -3.4387   0.0000   0.3059
   9.400   1.4068   0.01372   0.00816  -0.0953  0.0309  1.0000  -3.6165   0.0000   0.3039
   9.600   1.4175   0.01414   0.00856  -0.0935  0.0272  1.0000  -3.7992   0.0000   0.3019
   9.800   1.4267   0.01465   0.00903  -0.0915  0.0215  1.0000  -3.9768   0.0000   0.2997
  10.000   1.4389   0.01502   0.00939  -0.0901  0.0178  1.0000  -4.1752   0.0000   0.2978
  10.200   1.4496   0.01542   0.00979  -0.0884  0.0166  1.0000  -4.3689   0.0000   0.2959
  10.400   1.4588   0.01592   0.01028  -0.0865  0.0143  1.0000  -4.5563   0.0000   0.2939
  10.600   1.4666   0.01652   0.01087  -0.0845  0.0114  1.0000  -4.7374   0.0000   0.2919
  10.800   1.4744   0.01710   0.01145  -0.0826  0.0085  1.0000  -4.9216   0.0000   0.2899
  11.000   1.4842   0.01764   0.01198  -0.0810  0.0071  1.0000  -5.1215   0.0000   0.2882
  11.200   1.4897   0.01840   0.01274  -0.0789  0.0054  1.0000  -5.2959   0.0000   0.2862
  11.400   1.4929   0.01929   0.01362  -0.0766  0.0038  1.0000  -5.4572   0.0000   0.2842
  11.600   1.5003   0.02001   0.01436  -0.0749  0.0030  1.0000  -5.6478   0.0000   0.2825
  11.800   1.5043   0.02093   0.01531  -0.0730  0.0024  1.0000  -5.8176   0.0000   0.2807
  12.000   1.5113   0.02177   0.01616  -0.0715  0.0017  1.0000  -6.0091   0.0000   0.2791
  12.200   1.5202   0.02253   0.01694  -0.0703  0.0012  1.0000  -6.2150   0.0000   0.2777
  12.400   1.5256   0.02352   0.01796  -0.0688  0.0011  1.0000  -6.4002   0.0000   0.2762
  12.600   1.5333   0.02442   0.01891  -0.0676  0.0010  1.0000  -6.6056   0.0000   0.2748
  12.800   1.5404   0.02540   0.01991  -0.0664  0.0009  1.0000  -6.8066   0.0000   0.2734
  13.000   1.5432   0.02672   0.02126  -0.0650  0.0008  1.0000  -6.9755   0.0000   0.2721
  13.200   1.5484   0.02790   0.02247  -0.0639  0.0007  1.0000  -7.1615   0.0000   0.2708
  13.400   1.5529   0.02918   0.02378  -0.0628  0.0006  1.0000  -7.3332   0.0000   0.2695
  13.600   1.5543   0.03077   0.02541  -0.0617  0.0004  1.0000  -7.4665   0.0000   0.2684
  13.800   1.5594   0.03208   0.02676  -0.0608  0.0003  1.0000  -7.6201   0.0000   0.2672
  14.000   1.5640   0.03340   0.02813  -0.0599  0.0003  1.0000  -7.7805   0.0000   0.2661
  14.200   1.5628   0.03534   0.03013  -0.0590  0.0003  1.0000  -7.9065   0.0000   0.2651
  14.400   1.5667   0.03685   0.03169  -0.0582  0.0003  1.0000  -8.0718   0.0000   0.2642
  14.600   1.5708   0.03839   0.03327  -0.0576  0.0003  1.0000  -8.2410   0.0000   0.2632
  14.800   1.5687   0.04069   0.03564  -0.0570  0.0003  1.0000  -8.3654   0.0000   0.2624
  15.000   1.5708   0.04256   0.03756  -0.0564  0.0003  1.0000  -8.5232   0.0000   0.2616
  15.200   1.5739   0.04433   0.03937  -0.0559  0.0003  1.0000  -8.6905   0.0000   0.2608
  15.400   1.5763   0.04620   0.04130  -0.0555  0.0003  1.0000  -8.8538   0.0000   0.2600
  15.600   1.5708   0.04916   0.04433  -0.0553  0.0003  1.0000  -8.9525   0.0000   0.2595
  15.800   1.5725   0.05121   0.04644  -0.0551  0.0002  1.0000  -9.1111   0.0000   0.2588
  16.000   1.5744   0.05323   0.04851  -0.0548  0.0002  1.0000  -9.2725   0.0000   0.2582
  16.200   1.5754   0.05540   0.05073  -0.0546  0.0002  1.0000  -9.4269   0.0000   0.2576
  16.400   1.5671   0.05892   0.05433  -0.0549  0.0002  1.0000  -9.5010   0.0000   0.2575
  16.600   1.5674   0.06122   0.05669  -0.0549  0.0002  1.0000  -9.6500   0.0000   0.2570
  16.800   1.5686   0.06345   0.05897  -0.0549  0.0002  1.0000  -9.8065   0.0000   0.2565
  17.000   1.5688   0.06580   0.06139  -0.0550  0.0002  1.0000  -9.9550   0.0000   0.2561
  17.200   1.5575   0.06973   0.06540  -0.0557  0.0002  1.0000  -10.0001   0.0000   0.2562
  17.400   1.5553   0.07246   0.06819  -0.0560  0.0002  1.0000  -10.1271   0.0000   0.2560
  17.600   1.5554   0.07492   0.07071  -0.0563  0.0002  1.0000  -10.2811   0.0000   0.2557
  17.800   1.5551   0.07747   0.07332  -0.0567  0.0002  1.0000  -10.4325   0.0000   0.2555
  18.000   1.5539   0.08024   0.07615  -0.0572  0.0002  1.0000  -10.5751   0.0000   0.2553
  18.200   1.5397   0.08522   0.08123  -0.0586  0.0002  1.0000  -10.5855   0.0000   0.2561
  18.400   1.5382   0.08812   0.08419  -0.0592  0.0002  1.0000  -10.7226   0.0000   0.2560
  18.600   1.5382   0.09081   0.08693  -0.0599  0.0002  1.0000  -10.8739   0.0000   0.2559
  18.800   1.5379   0.09357   0.08977  -0.0606  0.0002  1.0000  -11.0235   0.0000   0.2559
  19.000   1.5362   0.09656   0.09282  -0.0614  0.0002  1.0000  -11.1573   0.0000   0.2559
  19.200   1.5197   0.10211   0.09847  -0.0635  0.0002  1.0000  -11.1315   0.0000   0.2572
  19.400   1.5175   0.10523   0.10165  -0.0646  0.0002  1.0000  -11.2555   0.0000   0.2575
  19.600   1.5170   0.10805   0.10453  -0.0655  0.0002  1.0000  -11.3977   0.0000   0.2576
  19.800   1.5160   0.11092   0.10746  -0.0666  0.0003  1.0000  -11.5351   0.0000   0.2578
  20.000   1.5136   0.11404   0.11063  -0.0678  0.0003  1.0000  -11.6548   0.0000   0.2581


