xflr5 v6.38

 Calculated polar for: EPPLER E854 AIRFOIL

 1 1 Reynolds number fixed          Mach number fixed         

 xtrf =   1.000 (top)        1.000 (bottom)
 Mach =   0.000     Re =     3.000 e 6     Ncrit =   9.000

  alpha     CL        CD       CDp       Cm    Top Xtr Bot Xtr   Cpmin    Chinge    XCp    
 ------- -------- --------- --------- -------- ------- ------- -------- --------- ---------
  -5.000  -0.0502   0.00683   0.00173  -0.1191  0.6790  0.0322  -2.5851   0.0000  -2.1648
  -4.800  -0.0287   0.00676   0.00163  -0.1190  0.6683  0.0366  -2.3662   0.0000  -3.9702
  -4.600  -0.0070   0.00664   0.00153  -0.1190  0.6566  0.0506  -2.1553   0.0000  -17.1313
  -4.400   0.0155   0.00652   0.00144  -0.1192  0.6529  0.0588  -1.9464   0.0000   8.0723
  -4.200   0.0377   0.00633   0.00134  -0.1193  0.6504  0.0815  -1.7463   0.0000   3.4585
  -4.000   0.0599   0.00616   0.00124  -0.1194  0.6466  0.1069  -1.5530   0.0000   2.2708
  -3.800   0.0819   0.00601   0.00115  -0.1195  0.6409  0.1356  -1.3668   0.0000   1.7282
  -3.600   0.1035   0.00584   0.00106  -0.1196  0.6338  0.1720  -1.1888   0.0000   1.4186
  -3.400   0.1252   0.00570   0.00098  -0.1196  0.6256  0.2070  -1.0172   0.0000   1.2157
  -3.200   0.1469   0.00552   0.00090  -0.1197  0.6152  0.2506  -0.8523   0.0000   1.0728
  -3.000   0.1688   0.00532   0.00084  -0.1198  0.6059  0.2980  -0.7311   0.0000   0.9661
  -2.800   0.1912   0.00512   0.00078  -0.1200  0.6046  0.3468  -0.6509   0.0000   0.8826
  -2.600   0.2139   0.00502   0.00076  -0.1202  0.6026  0.3717  -0.5972   0.0000   0.8158
  -2.400   0.2364   0.00491   0.00075  -0.1203  0.5993  0.4065  -0.6107   0.0000   0.7620
  -2.200   0.2591   0.00490   0.00073  -0.1204  0.5950  0.4168  -0.6242   0.0000   0.7173
  -2.000   0.2817   0.00493   0.00072  -0.1205  0.5899  0.4191  -0.6377   0.0000   0.6796
  -1.800   0.3042   0.00496   0.00072  -0.1206  0.5841  0.4203  -0.6511   0.0000   0.6477
  -1.600   0.3266   0.00499   0.00071  -0.1206  0.5774  0.4302  -0.6645   0.0000   0.6202
  -1.400   0.3491   0.00498   0.00072  -0.1207  0.5695  0.4478  -0.6779   0.0000   0.5963
  -1.200   0.3716   0.00498   0.00073  -0.1208  0.5621  0.4563  -0.6914   0.0000   0.5753
  -1.000   0.3943   0.00498   0.00074  -0.1209  0.5571  0.4642  -0.7049   0.0000   0.5565
  -0.800   0.4174   0.00498   0.00074  -0.1211  0.5567  0.4690  -0.7201   0.0000   0.5397
  -0.600   0.4405   0.00498   0.00075  -0.1213  0.5560  0.4708  -0.7356   0.0000   0.5246
  -0.400   0.4636   0.00500   0.00076  -0.1215  0.5550  0.4718  -0.7511   0.0000   0.5110
  -0.200   0.4866   0.00501   0.00077  -0.1216  0.5536  0.4723  -0.7666   0.0000   0.4987
   0.000   0.5095   0.00502   0.00078  -0.1218  0.5516  0.4758  -0.7821   0.0000   0.4876
   0.200   0.5323   0.00503   0.00079  -0.1219  0.5485  0.4818  -0.7976   0.0000   0.4774
   0.400   0.5548   0.00505   0.00081  -0.1220  0.5441  0.4898  -0.8129   0.0000   0.4680
   0.600   0.5771   0.00509   0.00083  -0.1220  0.5387  0.4981  -0.8281   0.0000   0.4594
   0.800   0.5992   0.00513   0.00086  -0.1221  0.5325  0.5044  -0.8433   0.0000   0.4514
   1.000   0.6215   0.00517   0.00089  -0.1221  0.5251  0.5093  -0.8585   0.0000   0.4440
   1.200   0.6437   0.00521   0.00092  -0.1221  0.5161  0.5137  -0.8736   0.0000   0.4371
   1.400   0.6660   0.00525   0.00096  -0.1222  0.5086  0.5174  -0.8888   0.0000   0.4306
   1.600   0.6889   0.00526   0.00098  -0.1223  0.5081  0.5202  -0.9046   0.0000   0.4246
   1.800   0.7119   0.00527   0.00101  -0.1225  0.5072  0.5223  -0.9204   0.0000   0.4189
   2.000   0.7347   0.00528   0.00104  -0.1226  0.5057  0.5238  -0.9362   0.0000   0.4136
   2.400   0.7795   0.00537   0.00111  -0.1228  0.4963  0.5255  -0.9682   0.0000   0.4037
   2.600   0.8010   0.00547   0.00116  -0.1226  0.4864  0.5298  -0.9850   0.0000   0.3992
   2.800   0.8222   0.00558   0.00121  -0.1225  0.4706  0.5386  -1.0017   0.0000   0.3949
   3.000   0.8442   0.00563   0.00127  -0.1225  0.4602  0.5484  -1.0200   0.0000   0.3908
   3.200   0.8668   0.00564   0.00132  -0.1226  0.4592  0.5565  -1.0604   0.0000   0.3870
   3.400   0.8893   0.00565   0.00137  -0.1227  0.4574  0.5633  -1.1067   0.0000   0.3833
   3.600   0.9112   0.00570   0.00144  -0.1227  0.4512  0.5692  -1.1530   0.0000   0.3798
   3.800   0.9322   0.00582   0.00152  -0.1225  0.4399  0.5738  -1.2081   0.0000   0.3763
   4.000   0.9532   0.00595   0.00160  -0.1223  0.4277  0.5769  -1.2646   0.0000   0.3730
   4.200   0.9746   0.00605   0.00167  -0.1222  0.4132  0.5788  -1.3242   0.0000   0.3699
   4.400   0.9963   0.00613   0.00174  -0.1222  0.4071  0.5820  -1.3987   0.0000   0.3669
   4.600   1.0154   0.00637   0.00188  -0.1217  0.3847  0.5937  -1.4696   0.0000   0.3639
   4.800   1.0355   0.00654   0.00200  -0.1213  0.3617  0.6065  -1.5433   0.0000   0.3610
   5.000   1.0503   0.00706   0.00229  -0.1201  0.3080  0.6174  -1.6277   0.0000   0.3580
   5.200   1.0670   0.00747   0.00253  -0.1191  0.2690  0.6264  -1.7211   0.0000   0.3551
   5.400   1.0841   0.00785   0.00277  -0.1183  0.2351  0.6319  -1.8171   0.0000   0.3523
   5.600   1.1006   0.00826   0.00306  -0.1173  0.2025  0.6390  -1.9653   0.0000   0.3496
   5.800   1.1184   0.00857   0.00329  -0.1166  0.1807  0.6562  -2.1601   0.0000   0.3470
   6.000   1.1363   0.00886   0.00351  -0.1159  0.1566  0.6699  -2.3624   0.0000   0.3446
   6.200   1.1519   0.00930   0.00381  -0.1148  0.1251  0.6802  -2.5582   0.0000   0.3420
   6.400   1.1675   0.00974   0.00411  -0.1137  0.0973  0.6863  -2.7593   0.0000   0.3395
   6.600   1.1844   0.01007   0.00438  -0.1128  0.0837  0.7040  -2.9737   0.0000   0.3371
   6.800   1.2028   0.01029   0.00460  -0.1122  0.0705  0.7223  -3.2019   0.0000   0.3349
   7.000   1.2205   0.01055   0.00484  -0.1115  0.0628  0.7351  -3.4330   0.0000   0.3327
   7.200   1.2374   0.01085   0.00510  -0.1106  0.0494  0.7550  -3.6647   0.0000   0.3305
   7.400   1.2549   0.01107   0.00535  -0.1099  0.0438  0.7783  -3.9067   0.0000   0.3284
   7.600   1.2707   0.01141   0.00566  -0.1088  0.0341  0.8027  -4.1423   0.0000   0.3262
   7.800   1.2882   0.01158   0.00589  -0.1080  0.0291  0.8329  -4.3959   0.0000   0.3242
   8.000   1.3032   0.01179   0.00618  -0.1067  0.0250  0.8865  -4.6385   0.0000   0.3219
   8.200   1.3158   0.01195   0.00646  -0.1049  0.0201  1.0000  -4.8703   0.0000   0.3195
   8.400   1.3330   0.01220   0.00670  -0.1041  0.0159  1.0000  -5.1368   0.0000   0.3176
   8.600   1.3500   0.01244   0.00697  -0.1032  0.0150  1.0000  -5.4103   0.0000   0.3157
   8.800   1.3648   0.01273   0.00725  -0.1020  0.0132  1.0000  -5.6729   0.0000   0.3137
   9.000   1.3774   0.01308   0.00758  -0.1003  0.0107  1.0000  -5.9325   0.0000   0.3115
   9.200   1.3904   0.01341   0.00789  -0.0987  0.0081  1.0000  -6.2113   0.0000   0.3094
   9.400   1.4045   0.01369   0.00818  -0.0973  0.0061  1.0000  -6.5050   0.0000   0.3074
   9.600   1.4152   0.01413   0.00858  -0.0954  0.0051  1.0000  -6.7785   0.0000   0.3052
   9.800   1.4263   0.01453   0.00898  -0.0935  0.0043  1.0000  -7.0584   0.0000   0.3031
  10.000   1.4384   0.01492   0.00937  -0.0919  0.0037  1.0000  -7.3498   0.0000   0.3011
  10.200   1.4499   0.01535   0.00980  -0.0902  0.0030  1.0000  -7.6378   0.0000   0.2992
  10.400   1.4599   0.01582   0.01030  -0.0882  0.0020  1.0000  -7.8980   0.0000   0.2971
  10.600   1.4682   0.01640   0.01094  -0.0860  0.0015  1.0000  -8.1239   0.0000   0.2949
  10.800   1.4814   0.01675   0.01130  -0.0847  0.0015  1.0000  -8.4530   0.0000   0.2932
  11.000   1.4941   0.01712   0.01168  -0.0834  0.0015  1.0000  -8.7816   0.0000   0.2915
  11.200   1.5051   0.01755   0.01213  -0.0818  0.0014  1.0000  -9.0968   0.0000   0.2898
  11.400   1.5160   0.01802   0.01262  -0.0803  0.0013  1.0000  -9.4111   0.0000   0.2880
  11.600   1.5268   0.01853   0.01316  -0.0788  0.0013  1.0000  -9.7242   0.0000   0.2864
  11.800   1.5357   0.01912   0.01378  -0.0771  0.0012  1.0000  -10.0200   0.0000   0.2846
  12.000   1.5446   0.01974   0.01443  -0.0754  0.0011  1.0000  -10.3183   0.0000   0.2829
  12.200   1.5535   0.02039   0.01511  -0.0738  0.0011  1.0000  -10.6192   0.0000   0.2812
  12.400   1.5600   0.02114   0.01590  -0.0720  0.0010  1.0000  -10.9000   0.0000   0.2795
  12.600   1.5679   0.02190   0.01672  -0.0705  0.0010  1.0000  -11.1991   0.0000   0.2780
  12.800   1.5750   0.02273   0.01759  -0.0689  0.0009  1.0000  -11.4920   0.0000   0.2764
  13.000   1.5810   0.02366   0.01856  -0.0673  0.0009  1.0000  -11.7755   0.0000   0.2749
  13.200   1.5882   0.02457   0.01951  -0.0660  0.0009  1.0000  -12.0754   0.0000   0.2734
  13.400   1.5933   0.02564   0.02063  -0.0645  0.0009  1.0000  -12.3532   0.0000   0.2720
  13.600   1.5988   0.02674   0.02177  -0.0631  0.0008  1.0000  -12.6376   0.0000   0.2706
  13.800   1.6051   0.02781   0.02289  -0.0619  0.0008  1.0000  -12.9340   0.0000   0.2694
  14.000   1.6081   0.02916   0.02429  -0.0606  0.0008  1.0000  -13.1938   0.0000   0.2681
  14.200   1.6127   0.03043   0.02561  -0.0595  0.0008  1.0000  -13.4739   0.0000   0.2669
  14.400   1.6176   0.03169   0.02691  -0.0585  0.0008  1.0000  -13.7588   0.0000   0.2657
  14.600   1.6181   0.03333   0.02862  -0.0573  0.0007  1.0000  -13.9925   0.0000   0.2646
  14.800   1.6215   0.03483   0.03017  -0.0564  0.0007  1.0000  -14.2618   0.0000   0.2635
  15.000   1.6254   0.03633   0.03173  -0.0556  0.0007  1.0000  -14.5397   0.0000   0.2625
  15.200   1.6248   0.03835   0.03381  -0.0548  0.0007  1.0000  -14.7606   0.0000   0.2616
  15.400   1.6269   0.04017   0.03569  -0.0542  0.0007  1.0000  -15.0161   0.0000   0.2608
  15.600   1.6297   0.04194   0.03752  -0.0536  0.0007  1.0000  -15.2819   0.0000   0.2599
  15.800   1.6285   0.04421   0.03985  -0.0531  0.0007  1.0000  -15.4966   0.0000   0.2592
  16.000   1.6277   0.04650   0.04222  -0.0527  0.0007  1.0000  -15.7153   0.0000   0.2585
  16.200   1.6291   0.04856   0.04433  -0.0524  0.0006  1.0000  -15.9640   0.0000   0.2578
  16.400   1.6300   0.05071   0.04654  -0.0521  0.0006  1.0000  -16.2053   0.0000   0.2572
  16.600   1.6238   0.05384   0.04977  -0.0522  0.0006  1.0000  -16.3491   0.0000   0.2569
  16.800   1.6233   0.05625   0.05223  -0.0522  0.0006  1.0000  -16.5705   0.0000   0.2564
  17.000   1.6231   0.05865   0.05471  -0.0522  0.0006  1.0000  -16.7952   0.0000   0.2560
  17.200   1.6166   0.06196   0.05810  -0.0526  0.0006  1.0000  -16.9300   0.0000   0.2558
  17.400   1.6115   0.06504   0.06125  -0.0530  0.0006  1.0000  -17.0820   0.0000   0.2557
  17.600   1.6093   0.06773   0.06402  -0.0533  0.0006  1.0000  -17.2755   0.0000   0.2555
  17.800   1.6068   0.07063   0.06699  -0.0537  0.0006  1.0000  -17.4613   0.0000   0.2553
  18.000   1.5949   0.07514   0.07160  -0.0550  0.0006  1.0000  -17.5043   0.0000   0.2558
  18.200   1.5912   0.07841   0.07494  -0.0557  0.0006  1.0000  -17.6672   0.0000   0.2559
  18.400   1.5881   0.08164   0.07825  -0.0565  0.0005  1.0000  -17.8362   0.0000   0.2559
  18.600   1.5830   0.08521   0.08190  -0.0575  0.0005  1.0000  -17.9727   0.0000   0.2562
  18.800   1.5689   0.09052   0.08734  -0.0595  0.0005  1.0000  -17.9600   0.0000   0.2573
  19.000   1.5642   0.09415   0.09104  -0.0608  0.0005  1.0000  -18.0926   0.0000   0.2576
  19.200   1.5585   0.09795   0.09493  -0.0621  0.0005  1.0000  -18.2041   0.0000   0.2582
  19.400   1.5428   0.10376   0.10085  -0.0648  0.0005  1.0000  -18.1439   0.0000   0.2598
  19.600   1.5360   0.10783   0.10500  -0.0665  0.0005  1.0000  -18.2263   0.0000   0.2605
  19.800   1.5291   0.11191   0.10916  -0.0683  0.0005  1.0000  -18.2993   0.0000   0.2614
  20.000   1.5128   0.11800   0.11536  -0.0716  0.0005  1.0000  -18.1989   0.0000   0.2635


