xflr5 v6.38

 Calculated polar for: EPPLER 858 AIRFOIL

 1 1 Reynolds number fixed          Mach number fixed         

 xtrf =   1.000 (top)        1.000 (bottom)
 Mach =   0.000     Re =     3.000 e 6     Ncrit =   9.000

  alpha     CL        CD       CDp       Cm    Top Xtr Bot Xtr   Cpmin    Chinge    XCp    
 ------- -------- --------- --------- -------- ------- ------- -------- --------- ---------
  -5.000   0.0309   0.00747   0.00202  -0.1173  0.4300  0.1943  -1.4811   0.0000   4.2239
  -4.800   0.0504   0.00726   0.00191  -0.1168  0.4245  0.2292  -1.3857   0.0000   2.6732
  -4.600   0.0707   0.00712   0.00184  -0.1165  0.4184  0.2595  -1.2899   0.0000   1.9683
  -4.400   0.0914   0.00700   0.00179  -0.1162  0.4116  0.2809  -1.1950   0.0000   1.5723
  -4.200   0.1135   0.00701   0.00177  -0.1160  0.4041  0.2851  -1.1021   0.0000   1.3102
  -4.000   0.1357   0.00701   0.00176  -0.1159  0.3977  0.2904  -1.0455   0.0000   1.1334
  -3.800   0.1576   0.00696   0.00174  -0.1157  0.3950  0.3063  -1.0612   0.0000   1.0075
  -3.600   0.1795   0.00689   0.00173  -0.1155  0.3945  0.3189  -1.0844   0.0000   0.9127
  -3.400   0.2017   0.00686   0.00172  -0.1154  0.3938  0.3260  -1.1079   0.0000   0.8375
  -3.200   0.2241   0.00686   0.00172  -0.1153  0.3928  0.3300  -1.1316   0.0000   0.7768
  -3.000   0.2466   0.00687   0.00172  -0.1152  0.3915  0.3318  -1.1555   0.0000   0.7271
  -2.800   0.2690   0.00690   0.00172  -0.1151  0.3894  0.3326  -1.1794   0.0000   0.6857
  -2.600   0.2913   0.00693   0.00172  -0.1150  0.3865  0.3342  -1.2032   0.0000   0.6509
  -2.400   0.3131   0.00696   0.00173  -0.1148  0.3828  0.3424  -1.2268   0.0000   0.6213
  -2.200   0.3348   0.00700   0.00175  -0.1146  0.3785  0.3502  -1.2503   0.0000   0.5956
  -2.000   0.3565   0.00704   0.00177  -0.1144  0.3739  0.3571  -1.2739   0.0000   0.5731
  -1.800   0.3782   0.00707   0.00180  -0.1143  0.3687  0.3634  -1.2975   0.0000   0.5532
  -1.600   0.4000   0.00710   0.00183  -0.1141  0.3628  0.3704  -1.3212   0.0000   0.5354
  -1.400   0.4219   0.00714   0.00186  -0.1139  0.3570  0.3749  -1.3451   0.0000   0.5193
  -1.200   0.4438   0.00719   0.00189  -0.1138  0.3523  0.3771  -1.3689   0.0000   0.5049
  -1.000   0.4659   0.00723   0.00192  -0.1136  0.3497  0.3788  -1.3930   0.0000   0.4917
  -0.800   0.4884   0.00726   0.00195  -0.1136  0.3496  0.3800  -1.4177   0.0000   0.4797
  -0.600   0.5108   0.00729   0.00197  -0.1135  0.3494  0.3809  -1.4424   0.0000   0.4687
  -0.400   0.5332   0.00732   0.00200  -0.1135  0.3493  0.3814  -1.4671   0.0000   0.4587
  -0.200   0.5556   0.00735   0.00203  -0.1134  0.3490  0.3817  -1.4920   0.0000   0.4495
   0.000   0.5779   0.00739   0.00206  -0.1133  0.3486  0.3819  -1.5168   0.0000   0.4410
   0.200   0.6002   0.00742   0.00209  -0.1132  0.3481  0.3820  -1.5417   0.0000   0.4331
   0.400   0.6224   0.00746   0.00212  -0.1132  0.3474  0.3821  -1.5666   0.0000   0.4257
   0.600   0.6442   0.00748   0.00214  -0.1130  0.3464  0.3857  -1.5912   0.0000   0.4189
   0.800   0.6658   0.00751   0.00217  -0.1128  0.3452  0.3901  -1.6157   0.0000   0.4125
   1.000   0.6871   0.00755   0.00220  -0.1126  0.3436  0.3957  -1.6401   0.0000   0.4065
   1.200   0.7081   0.00759   0.00225  -0.1123  0.3415  0.4021  -1.6642   0.0000   0.4009
   1.400   0.7287   0.00765   0.00230  -0.1120  0.3388  0.4082  -1.6882   0.0000   0.3955
   1.600   0.7491   0.00772   0.00237  -0.1116  0.3358  0.4134  -1.7119   0.0000   0.3904
   1.800   0.7693   0.00780   0.00243  -0.1112  0.3324  0.4179  -1.7355   0.0000   0.3856
   2.000   0.7896   0.00788   0.00250  -0.1108  0.3285  0.4218  -1.7590   0.0000   0.3810
   2.200   0.8101   0.00797   0.00256  -0.1104  0.3239  0.4250  -1.7827   0.0000   0.3767
   2.400   0.8306   0.00805   0.00263  -0.1101  0.3189  0.4273  -1.8062   0.0000   0.3726
   2.600   0.8510   0.00814   0.00270  -0.1097  0.3143  0.4290  -1.8329   0.0000   0.3686
   2.800   0.8712   0.00824   0.00279  -0.1093  0.3103  0.4302  -1.8596   0.0000   0.3648
   3.000   0.8911   0.00834   0.00289  -0.1088  0.3071  0.4311  -1.8859   0.0000   0.3612
   3.200   0.9121   0.00840   0.00295  -0.1086  0.3066  0.4318  -1.9138   0.0000   0.3578
   3.400   0.9334   0.00845   0.00301  -0.1084  0.3065  0.4323  -1.9420   0.0000   0.3545
   3.600   0.9547   0.00851   0.00306  -0.1082  0.3065  0.4327  -1.9703   0.0000   0.3514
   3.800   0.9759   0.00856   0.00312  -0.1080  0.3064  0.4330  -1.9986   0.0000   0.3484
   4.000   0.9970   0.00862   0.00318  -0.1078  0.3064  0.4332  -2.0269   0.0000   0.3456
   4.200   1.0181   0.00868   0.00324  -0.1077  0.3063  0.4334  -2.0553   0.0000   0.3428
   4.400   1.0392   0.00873   0.00331  -0.1075  0.3063  0.4336  -2.0837   0.0000   0.3402
   4.600   1.0602   0.00879   0.00337  -0.1073  0.3062  0.4337  -2.1121   0.0000   0.3376
   4.800   1.0811   0.00885   0.00344  -0.1070  0.3061  0.4355  -2.1405   0.0000   0.3351
   5.000   1.1019   0.00889   0.00350  -0.1068  0.3061  0.4412  -2.1689   0.0000   0.3327
   5.200   1.1227   0.00894   0.00356  -0.1066  0.3060  0.4481  -2.1973   0.0000   0.3304
   5.400   1.1434   0.00898   0.00364  -0.1064  0.3058  0.4559  -2.2258   0.0000   0.3282
   5.600   1.1640   0.00903   0.00371  -0.1061  0.3057  0.4628  -2.2543   0.0000   0.3260
   5.800   1.1846   0.00907   0.00379  -0.1059  0.3055  0.4686  -2.2828   0.0000   0.3239
   6.000   1.2046   0.00912   0.00388  -0.1056  0.3052  0.4737  -2.3109   0.0000   0.3218
   6.200   1.2241   0.00918   0.00396  -0.1051  0.3050  0.4781  -2.3384   0.0000   0.3197
   6.400   1.2433   0.00925   0.00405  -0.1046  0.3047  0.4816  -2.3658   0.0000   0.3177
   6.600   1.2627   0.00932   0.00414  -0.1042  0.3044  0.4840  -2.3933   0.0000   0.3157
   6.800   1.2822   0.00940   0.00423  -0.1038  0.3040  0.4857  -2.4210   0.0000   0.3138
   7.000   1.3019   0.00948   0.00432  -0.1034  0.3036  0.4868  -2.4489   0.0000   0.3119
   7.200   1.3215   0.00956   0.00442  -0.1030  0.3030  0.4875  -2.4768   0.0000   0.3101
   7.400   1.3411   0.00964   0.00451  -0.1027  0.3023  0.4899  -2.5047   0.0000   0.3084
   7.600   1.3605   0.00972   0.00461  -0.1023  0.3014  0.4985  -2.5324   0.0000   0.3067
   7.800   1.3797   0.00981   0.00472  -0.1019  0.3003  0.5089  -2.5599   0.0000   0.3050
   8.000   1.3984   0.00990   0.00484  -0.1014  0.2988  0.5180  -2.5875   0.0000   0.3033
   8.200   1.4167   0.01001   0.00497  -0.1008  0.2969  0.5259  -2.6179   0.0000   0.3016
   8.400   1.4344   0.01014   0.00511  -0.1002  0.2947  0.5327  -2.6477   0.0000   0.2999
   8.600   1.4514   0.01030   0.00526  -0.0995  0.2921  0.5380  -2.6769   0.0000   0.2983
   8.800   1.4679   0.01048   0.00543  -0.0986  0.2892  0.5416  -2.7055   0.0000   0.2966
   9.000   1.4840   0.01067   0.00560  -0.0977  0.2860  0.5463  -2.7337   0.0000   0.2949
   9.200   1.4982   0.01087   0.00582  -0.0965  0.2823  0.5634  -2.7599   0.0000   0.2931
   9.400   1.5124   0.01106   0.00604  -0.0953  0.2783  0.5784  -2.7861   0.0000   0.2913
   9.600   1.5271   0.01126   0.00627  -0.0942  0.2745  0.5900  -2.8126   0.0000   0.2896
   9.800   1.5419   0.01146   0.00649  -0.0932  0.2713  0.5971  -2.8391   0.0000   0.2879
  10.000   1.5567   0.01168   0.00673  -0.0921  0.2686  0.6063  -2.8655   0.0000   0.2863
  10.200   1.5708   0.01189   0.00701  -0.0910  0.2664  0.6279  -2.8912   0.0000   0.2847
  10.400   1.5872   0.01204   0.00722  -0.0902  0.2660  0.6452  -2.9197   0.0000   0.2832
  10.600   1.6032   0.01219   0.00742  -0.0894  0.2660  0.6558  -2.9480   0.0000   0.2818
  10.800   1.6177   0.01235   0.00765  -0.0884  0.2659  0.6859  -2.9749   0.0000   0.2803
  11.000   1.6331   0.01250   0.00788  -0.0875  0.2659  0.7084  -3.0028   0.0000   0.2788
  11.400   1.6629   0.01268   0.00833  -0.0855  0.2657  0.8162  -3.0576   0.0000   0.2759
  11.600   1.6967   0.01262   0.00859  -0.0885  0.2656  1.0000  -3.1046   0.0000   0.2762
  11.800   1.7139   0.01281   0.00880  -0.0880  0.2655  1.0000  -3.1344   0.0000   0.2750
  12.000   1.7311   0.01300   0.00902  -0.0875  0.2654  1.0000  -3.1642   0.0000   0.2738
  12.200   1.7485   0.01319   0.00922  -0.0871  0.2652  1.0000  -3.1944   0.0000   0.2727
  12.400   1.7648   0.01341   0.00946  -0.0865  0.2650  1.0000  -3.2234   0.0000   0.2715
  12.600   1.7796   0.01368   0.00975  -0.0858  0.2646  1.0000  -3.2508   0.0000   0.2702
  12.800   1.7953   0.01394   0.01003  -0.0852  0.2642  1.0000  -3.2790   0.0000   0.2690
  13.000   1.8114   0.01418   0.01029  -0.0846  0.2638  1.0000  -3.3077   0.0000   0.2679
  13.200   1.8276   0.01444   0.01056  -0.0841  0.2632  1.0000  -3.3364   0.0000   0.2668
  13.400   1.8436   0.01470   0.01084  -0.0836  0.2623  1.0000  -3.3659   0.0000   0.2657
  13.600   1.8590   0.01499   0.01115  -0.0831  0.2612  1.0000  -3.3978   0.0000   0.2646
  13.800   1.8725   0.01535   0.01152  -0.0823  0.2598  1.0000  -3.4274   0.0000   0.2634
  14.000   1.8819   0.01587   0.01205  -0.0810  0.2579  1.0000  -3.4521   0.0000   0.2620
  14.200   1.8925   0.01640   0.01256  -0.0799  0.2551  1.0000  -3.4781   0.0000   0.2608
  14.400   1.9017   0.01702   0.01316  -0.0788  0.2513  1.0000  -3.5053   0.0000   0.2595
  14.600   1.9097   0.01773   0.01384  -0.0775  0.2471  1.0000  -3.5367   0.0000   0.2582
  14.800   1.9135   0.01871   0.01484  -0.0759  0.2430  1.0000  -3.5621   0.0000   0.2568
  15.000   1.9231   0.01941   0.01555  -0.0750  0.2390  1.0000  -3.5962   0.0000   0.2556
  15.200   1.9335   0.02008   0.01622  -0.0742  0.2349  1.0000  -3.6365   0.0000   0.2545
  15.400   1.9435   0.02079   0.01695  -0.0734  0.2312  1.0000  -3.6761   0.0000   0.2535
  15.600   1.9474   0.02195   0.01814  -0.0722  0.2281  1.0000  -3.7063   0.0000   0.2523
  15.800   1.9599   0.02256   0.01878  -0.0717  0.2279  1.0000  -3.7502   0.0000   0.2513
  16.000   1.9732   0.02312   0.01936  -0.0714  0.2277  1.0000  -3.8025   0.0000   0.2504
  16.200   1.9862   0.02369   0.01996  -0.0710  0.2273  1.0000  -3.8546   0.0000   0.2495
  16.400   1.9987   0.02430   0.02061  -0.0706  0.2269  1.0000  -3.9060   0.0000   0.2486
  16.600   2.0099   0.02502   0.02136  -0.0702  0.2265  1.0000  -3.9552   0.0000   0.2477
  16.800   2.0136   0.02635   0.02274  -0.0694  0.2258  1.0000  -3.9913   0.0000   0.2467
  17.000   2.0233   0.02718   0.02360  -0.0689  0.2247  1.0000  -4.0389   0.0000   0.2458
  17.200   2.0315   0.02810   0.02453  -0.0683  0.2226  1.0000  -4.0914   0.0000   0.2449
  17.400   2.0341   0.02941   0.02583  -0.0674  0.2188  1.0000  -4.1330   0.0000   0.2438
  17.600   2.0209   0.03208   0.02851  -0.0658  0.2143  1.0000  -4.1426   0.0000   0.2426
  17.800   2.0159   0.03387   0.03028  -0.0644  0.2092  1.0000  -4.1688   0.0000   0.2415
  18.000   2.0107   0.03586   0.03227  -0.0633  0.2040  1.0000  -4.1942   0.0000   0.2404
  18.200   1.9962   0.03889   0.03535  -0.0621  0.1987  1.0000  -4.1999   0.0000   0.2394
  18.400   1.9979   0.04044   0.03691  -0.0615  0.1935  1.0000  -4.2388   0.0000   0.2385
  18.600   2.0030   0.04172   0.03822  -0.0610  0.1923  1.0000  -4.2847   0.0000   0.2377
  19.200   1.9918   0.04819   0.04485  -0.0592  0.1896  1.0000  -4.3884   0.0000   0.2352
  19.400   1.9908   0.05001   0.04668  -0.0587  0.1871  1.0000  -4.4298   0.0000   0.2344
  19.800   1.9337   0.05893   0.05565  -0.0564  0.1777  1.0000  -4.3795   0.0000   0.2327


