xflr5 v6.38

 Calculated polar for: EPPLER E852 AIRFOIL

 1 1 Reynolds number fixed          Mach number fixed         

 xtrf =   1.000 (top)        1.000 (bottom)
 Mach =   0.000     Re =     3.000 e 6     Ncrit =   9.000

  alpha     CL        CD       CDp       Cm    Top Xtr Bot Xtr   Cpmin    Chinge    XCp    
 ------- -------- --------- --------- -------- ------- ------- -------- --------- ---------
  -5.000  -0.1250   0.00666   0.00191  -0.1083  0.8109  0.0028  -4.0940   0.0000  -0.6282
  -4.800  -0.1035   0.00657   0.00175  -0.1083  0.8026  0.0034  -3.7185   0.0000  -0.8098
  -4.600  -0.0817   0.00639   0.00154  -0.1082  0.7938  0.0079  -3.3986   0.0000  -1.0901
  -4.400  -0.0595   0.00622   0.00142  -0.1084  0.7910  0.0121  -3.0298   0.0000  -1.5928
  -4.200  -0.0370   0.00607   0.00130  -0.1086  0.7897  0.0197  -2.6742   0.0000  -2.7175
  -4.000  -0.0144   0.00595   0.00121  -0.1088  0.7881  0.0258  -2.3308   0.0000  -7.3573
  -3.800   0.0079   0.00578   0.00110  -0.1089  0.7858  0.0414  -2.0256   0.0000  14.1701
  -3.600   0.0301   0.00560   0.00100  -0.1091  0.7829  0.0650  -1.7591   0.0000   3.9021
  -3.400   0.0523   0.00542   0.00090  -0.1092  0.7795  0.0924  -1.5044   0.0000   2.3554
  -3.200   0.0743   0.00523   0.00081  -0.1094  0.7756  0.1319  -1.2622   0.0000   1.7326
  -3.000   0.0958   0.00491   0.00070  -0.1095  0.7712  0.2003  -1.0341   0.0000   1.4005
  -2.800   0.1172   0.00458   0.00059  -0.1097  0.7658  0.2836  -0.8175   0.0000   1.1913
  -2.600   0.1390   0.00440   0.00053  -0.1098  0.7596  0.3356  -0.6439   0.0000   1.0438
  -2.400   0.1612   0.00426   0.00049  -0.1099  0.7538  0.3787  -0.5561   0.0000   0.9353
  -2.200   0.1836   0.00415   0.00048  -0.1101  0.7492  0.4168  -0.4739   0.0000   0.8522
  -2.000   0.2065   0.00409   0.00046  -0.1103  0.7488  0.4315  -0.4395   0.0000   0.7861
  -1.800   0.2295   0.00408   0.00045  -0.1105  0.7481  0.4353  -0.4486   0.0000   0.7330
  -1.600   0.2525   0.00403   0.00043  -0.1107  0.7470  0.4558  -0.4577   0.0000   0.6897
  -1.400   0.2753   0.00397   0.00043  -0.1109  0.7453  0.4697  -0.4668   0.0000   0.6537
  -1.200   0.2981   0.00394   0.00042  -0.1111  0.7427  0.4793  -0.4758   0.0000   0.6232
  -1.000   0.3208   0.00394   0.00042  -0.1112  0.7391  0.4856  -0.4848   0.0000   0.5970
  -0.800   0.3433   0.00396   0.00041  -0.1113  0.7340  0.4877  -0.4937   0.0000   0.5743
  -0.600   0.3654   0.00398   0.00041  -0.1113  0.7272  0.4976  -0.5025   0.0000   0.5545
  -0.400   0.3874   0.00399   0.00042  -0.1113  0.7184  0.5130  -0.5111   0.0000   0.5371
  -0.200   0.4095   0.00399   0.00043  -0.1114  0.7090  0.5241  -0.5197   0.0000   0.5215
   0.000   0.4322   0.00399   0.00045  -0.1115  0.7046  0.5323  -0.5286   0.0000   0.5074
   0.200   0.4552   0.00397   0.00046  -0.1117  0.7036  0.5368  -0.5377   0.0000   0.4946
   0.400   0.4781   0.00397   0.00047  -0.1119  0.7017  0.5393  -0.5468   0.0000   0.4831
   0.600   0.5008   0.00399   0.00048  -0.1120  0.6972  0.5406  -0.5559   0.0000   0.4726
   0.800   0.5230   0.00403   0.00049  -0.1120  0.6885  0.5422  -0.5654   0.0000   0.4630
   1.000   0.5447   0.00408   0.00051  -0.1120  0.6775  0.5510  -0.5761   0.0000   0.4542
   1.200   0.5661   0.00414   0.00055  -0.1118  0.6585  0.5615  -0.6000   0.0000   0.4461
   1.400   0.5885   0.00415   0.00057  -0.1119  0.6511  0.5706  -0.6432   0.0000   0.4385
   1.600   0.6091   0.00426   0.00063  -0.1116  0.6285  0.5780  -0.6852   0.0000   0.4315
   1.800   0.6306   0.00433   0.00067  -0.1115  0.6101  0.5844  -0.7393   0.0000   0.4249
   2.000   0.6523   0.00440   0.00072  -0.1115  0.5972  0.5892  -0.7977   0.0000   0.4188
   2.200   0.6719   0.00462   0.00080  -0.1110  0.5591  0.5926  -0.8710   0.0000   0.4130
   2.400   0.6867   0.00520   0.00100  -0.1096  0.4626  0.5947  -0.9368   0.0000   0.4073
   2.600   0.7017   0.00579   0.00123  -0.1084  0.3690  0.6083  -1.0038   0.0000   0.4020
   2.800   0.7196   0.00615   0.00141  -0.1077  0.3131  0.6223  -1.0960   0.0000   0.3970
   3.000   0.7381   0.00646   0.00159  -0.1071  0.2668  0.6326  -1.1974   0.0000   0.3923
   3.200   0.7561   0.00683   0.00177  -0.1064  0.2174  0.6403  -1.4163   0.0000   0.3878
   3.400   0.7732   0.00728   0.00199  -0.1056  0.1553  0.6452  -1.6445   0.0000   0.3834
   3.600   0.7917   0.00762   0.00217  -0.1050  0.1175  0.6493  -1.8915   0.0000   0.3793
   3.800   0.8109   0.00789   0.00235  -0.1045  0.0892  0.6658  -2.1536   0.0000   0.3754
   4.000   0.8302   0.00815   0.00253  -0.1040  0.0648  0.6799  -2.4268   0.0000   0.3717
   4.200   0.8493   0.00842   0.00273  -0.1036  0.0435  0.6909  -2.7101   0.0000   0.3682
   4.400   0.8686   0.00869   0.00292  -0.1031  0.0292  0.6979  -3.0055   0.0000   0.3647
   4.600   0.8890   0.00885   0.00308  -0.1028  0.0227  0.7118  -3.3556   0.0000   0.3615
   4.800   0.9088   0.00904   0.00328  -0.1025  0.0161  0.7313  -3.7259   0.0000   0.3584
   5.000   0.9293   0.00918   0.00346  -0.1022  0.0121  0.7461  -4.1200   0.0000   0.3555
   5.200   0.9488   0.00941   0.00369  -0.1018  0.0080  0.7673  -4.5159   0.0000   0.3526
   5.400   0.9683   0.00960   0.00392  -0.1013  0.0047  0.7899  -4.9215   0.0000   0.3498
   5.600   0.9875   0.00984   0.00419  -0.1008  0.0025  0.8122  -5.3050   0.0000   0.3470
   5.800   1.0071   0.01000   0.00443  -0.1004  0.0019  0.8371  -5.7142   0.0000   0.3444
   6.000   1.0260   0.01016   0.00470  -0.0998  0.0015  0.8709  -6.1217   0.0000   0.3417
   6.200   1.0428   0.01030   0.00497  -0.0987  0.0013  0.9217  -6.5211   0.0000   0.3389
   6.400   1.0604   0.01046   0.00524  -0.0977  0.0011  1.0000  -6.9337   0.0000   0.3363
   6.600   1.0788   0.01082   0.00564  -0.0971  0.0009  1.0000  -7.3086   0.0000   0.3338
   6.800   1.0934   0.01162   0.00659  -0.0955  0.0006  1.0000  -7.4528   0.0000   0.3310
   7.000   1.1126   0.01188   0.00686  -0.0951  0.0006  1.0000  -7.9450   0.0000   0.3289
   7.200   1.1314   0.01218   0.00718  -0.0945  0.0006  1.0000  -8.4293   0.0000   0.3268
   7.400   1.1497   0.01255   0.00757  -0.0939  0.0006  1.0000  -8.8989   0.0000   0.3246
   7.600   1.1673   0.01297   0.00804  -0.0931  0.0005  1.0000  -9.3502   0.0000   0.3225
   7.800   1.1842   0.01347   0.00859  -0.0922  0.0005  1.0000  -9.7829   0.0000   0.3204
   8.000   1.2005   0.01404   0.00923  -0.0912  0.0005  1.0000  -10.1978   0.0000   0.3182
   8.200   1.2161   0.01469   0.00996  -0.0901  0.0005  1.0000  -10.5968   0.0000   0.3161
   8.400   1.2310   0.01543   0.01078  -0.0889  0.0005  1.0000  -10.9800   0.0000   0.3139
   8.600   1.2454   0.01626   0.01170  -0.0875  0.0005  1.0000  -11.3468   0.0000   0.3118
   8.800   1.2592   0.01720   0.01275  -0.0861  0.0005  1.0000  -11.6949   0.0000   0.3097
   9.000   1.2723   0.01827   0.01394  -0.0846  0.0005  1.0000  -12.0209   0.0000   0.3075
   9.200   1.2848   0.01949   0.01529  -0.0831  0.0005  1.0000  -12.3204   0.0000   0.3054
   9.400   1.2963   0.02089   0.01684  -0.0814  0.0005  1.0000  -12.5873   0.0000   0.3033
   9.600   1.3064   0.02250   0.01862  -0.0795  0.0005  1.0000  -12.8126   0.0000   0.3011
   9.800   1.3145   0.02437   0.02073  -0.0773  0.0005  1.0000  -12.9814   0.0000   0.2989
  10.000   1.3198   0.02649   0.02308  -0.0748  0.0005  1.0000  -13.0874   0.0000   0.2965
  10.200   1.3213   0.02889   0.02572  -0.0719  0.0005  1.0000  -13.1175   0.0000   0.2940
  10.400   1.3167   0.03135   0.02841  -0.0679  0.0005  1.0000  -13.0697   0.0000   0.2910
  10.600   1.3067   0.03387   0.03115  -0.0633  0.0005  1.0000  -12.9607   0.0000   0.2876
  10.800   1.2930   0.03660   0.03410  -0.0587  0.0005  1.0000  -12.7980   0.0000   0.2843
  11.000   1.2759   0.03961   0.03733  -0.0541  0.0005  1.0000  -12.5863   0.0000   0.2812
  11.200   1.2559   0.04298   0.04090  -0.0501  0.0005  1.0000  -12.3318   0.0000   0.2784
  11.400   1.2334   0.04673   0.04485  -0.0466  0.0005  1.0000  -12.0446   0.0000   0.2761
  11.600   1.2090   0.05088   0.04919  -0.0440  0.0005  1.0000  -11.7340   0.0000   0.2744
  11.800   1.1826   0.05577   0.05426  -0.0424  0.0005  1.0000  -11.3771   0.0000   0.2736
  12.000   1.1546   0.06136   0.06002  -0.0420  0.0006  1.0000  -10.9828   0.0000   0.2738
  12.200   1.1272   0.06742   0.06619  -0.0428  0.0006  1.0000  -10.6050   0.0000   0.2751
  12.400   1.1008   0.07371   0.07261  -0.0449  0.0006  1.0000  -10.2649   0.0000   0.2775
  12.600   1.0813   0.07990   0.07890  -0.0479  0.0006  1.0000  -10.0764   0.0000   0.2808
  12.800   1.0676   0.08598   0.08505  -0.0517  0.0006  1.0000  -10.0072   0.0000   0.2846
  13.000   1.0554   0.09297   0.09212  -0.0565  0.0006  1.0000  -9.9220   0.0000   0.2894
  13.200   1.0444   0.10207   0.10130  -0.0631  0.0006  1.0000  -9.7605   0.0000   0.2961
  14.200   0.9099   0.17490   0.17410  -0.0982  0.0020  1.0000  -3.0686   0.0000   0.3447
  14.400   0.9122   0.17883   0.17803  -0.1003  0.0020  1.0000  -3.0143   0.0000   0.3465
  14.600   0.9151   0.18276   0.18196  -0.1024  0.0020  1.0000  -2.9714   0.0000   0.3482
  14.800   0.9185   0.18661   0.18581  -0.1044  0.0020  1.0000  -2.9477   0.0000   0.3497
  15.000   0.9231   0.19011   0.18931  -0.1062  0.0019  1.0000  -2.9784   0.0000   0.3508
  15.200   0.9286   0.19328   0.19248  -0.1078  0.0018  1.0000  -3.0555   0.0000   0.3516
  15.400   0.9330   0.19701   0.19621  -0.1096  0.0017  1.0000  -3.0605   0.0000   0.3527
  15.600   0.9369   0.20097   0.20017  -0.1115  0.0016  1.0000  -3.0382   0.0000   0.3540
  15.800   0.9407   0.20505   0.20425  -0.1134  0.0015  1.0000  -3.0045   0.0000   0.3553
  16.000   0.9444   0.20927   0.20847  -0.1154  0.0015  1.0000  -2.9585   0.0000   0.3567
  16.200   0.9481   0.21352   0.21271  -0.1173  0.0014  1.0000  -2.9133   0.0000   0.3580
  16.400   0.9520   0.21777   0.21697  -0.1192  0.0013  1.0000  -2.8714   0.0000   0.3592
  16.600   0.9558   0.22203   0.22123  -0.1211  0.0013  1.0000  -2.8335   0.0000   0.3605
  16.800   0.9598   0.22630   0.22549  -0.1230  0.0012  1.0000  -2.8000   0.0000   0.3616
  17.000   0.9637   0.23057   0.22977  -0.1248  0.0012  1.0000  -2.7714   0.0000   0.3628
  17.200   0.9677   0.23485   0.23405  -0.1267  0.0012  1.0000  -2.7466   0.0000   0.3638
  17.400   0.9718   0.23914   0.23834  -0.1285  0.0011  1.0000  -2.7254   0.0000   0.3649
  17.600   0.9758   0.24345   0.24264  -0.1303  0.0011  1.0000  -2.7076   0.0000   0.3659
  17.800   0.9798   0.24776   0.24696  -0.1321  0.0011  1.0000  -2.6931   0.0000   0.3669
  18.000   0.9839   0.25210   0.25129  -0.1339  0.0010  1.0000  -2.6815   0.0000   0.3679
  18.200   0.9879   0.25644   0.25564  -0.1356  0.0010  1.0000  -2.6727   0.0000   0.3688
  18.400   0.9918   0.26081   0.26001  -0.1374  0.0010  1.0000  -2.6666   0.0000   0.3697
  18.600   0.9957   0.26519   0.26439  -0.1391  0.0010  1.0000  -2.6631   0.0000   0.3706
  18.800   0.9996   0.26960   0.26880  -0.1408  0.0009  1.0000  -2.6619   0.0000   0.3715
  19.000   1.0033   0.27402   0.27322  -0.1426  0.0009  1.0000  -2.6631   0.0000   0.3724
  19.200   1.0070   0.27846   0.27767  -0.1442  0.0009  1.0000  -2.6663   0.0000   0.3732
  19.400   1.0105   0.28292   0.28213  -0.1459  0.0009  1.0000  -2.6716   0.0000   0.3741
  19.600   1.0140   0.28741   0.28662  -0.1476  0.0009  1.0000  -2.6787   0.0000   0.3749
  19.800   1.0173   0.29191   0.29112  -0.1492  0.0008  1.0000  -2.6875   0.0000   0.3757
  20.000   1.0204   0.29643   0.29565  -0.1508  0.0008  1.0000  -2.6978   0.0000   0.3765


