xflr5 v6.38

 Calculated polar for: EPPLER E853 AIRFOIL

 1 1 Reynolds number fixed          Mach number fixed         

 xtrf =   1.000 (top)        1.000 (bottom)
 Mach =   0.000     Re =     3.000 e 6     Ncrit =   9.000

  alpha     CL        CD       CDp       Cm    Top Xtr Bot Xtr   Cpmin    Chinge    XCp    
 ------- -------- --------- --------- -------- ------- ------- -------- --------- ---------
  -5.000  -0.0809   0.00666   0.00173  -0.1159  0.7393  0.0144  -3.1180   0.0000  -1.2050
  -4.800  -0.0588   0.00651   0.00161  -0.1161  0.7338  0.0207  -2.8529   0.0000  -1.7530
  -4.600  -0.0366   0.00646   0.00150  -0.1161  0.7273  0.0214  -2.5943   0.0000  -2.9644
  -4.400  -0.0146   0.00638   0.00140  -0.1162  0.7192  0.0302  -2.3452   0.0000  -7.8030
  -4.200   0.0074   0.00627   0.00130  -0.1162  0.7091  0.0381  -2.1017   0.0000  16.1230
  -4.000   0.0297   0.00610   0.00120  -0.1164  0.7025  0.0583  -1.8661   0.0000   4.2113
  -3.800   0.0526   0.00597   0.00112  -0.1167  0.7012  0.0745  -1.6354   0.0000   2.4915
  -3.400   0.0979   0.00565   0.00095  -0.1171  0.6965  0.1196  -1.2038   0.0000   1.4565
  -3.200   0.1203   0.00537   0.00084  -0.1174  0.6930  0.1783  -1.0044   0.0000   1.2339
  -3.000   0.1427   0.00516   0.00076  -0.1176  0.6887  0.2257  -0.8134   0.0000   1.0809
  -2.800   0.1649   0.00496   0.00068  -0.1179  0.6838  0.2757  -0.6930   0.0000   0.9696
  -2.600   0.1871   0.00478   0.00062  -0.1180  0.6782  0.3253  -0.6099   0.0000   0.8848
  -2.400   0.2094   0.00464   0.00058  -0.1182  0.6714  0.3703  -0.5281   0.0000   0.8177
  -2.200   0.2320   0.00463   0.00057  -0.1183  0.6640  0.3844  -0.5237   0.0000   0.7626
  -2.000   0.2545   0.00456   0.00056  -0.1185  0.6579  0.4112  -0.5347   0.0000   0.7175
  -1.800   0.2775   0.00452   0.00055  -0.1187  0.6559  0.4249  -0.5464   0.0000   0.6792
  -1.600   0.3007   0.00449   0.00054  -0.1190  0.6554  0.4378  -0.5583   0.0000   0.6466
  -1.400   0.3239   0.00447   0.00053  -0.1192  0.6547  0.4475  -0.5701   0.0000   0.6187
  -1.200   0.3470   0.00442   0.00054  -0.1194  0.6536  0.4597  -0.5819   0.0000   0.5946
  -1.000   0.3700   0.00439   0.00054  -0.1196  0.6520  0.4716  -0.5938   0.0000   0.5734
  -0.800   0.3930   0.00439   0.00055  -0.1198  0.6496  0.4768  -0.6056   0.0000   0.5547
  -0.600   0.4159   0.00441   0.00055  -0.1200  0.6463  0.4785  -0.6173   0.0000   0.5381
  -0.400   0.4386   0.00445   0.00056  -0.1201  0.6420  0.4794  -0.6290   0.0000   0.5232
  -0.200   0.4610   0.00447   0.00056  -0.1202  0.6361  0.4893  -0.6406   0.0000   0.5099
   0.000   0.4832   0.00450   0.00058  -0.1202  0.6274  0.4999  -0.6520   0.0000   0.4978
   0.200   0.5055   0.00453   0.00060  -0.1202  0.6171  0.5091  -0.6634   0.0000   0.4868
   0.400   0.5279   0.00454   0.00063  -0.1203  0.6093  0.5159  -0.6749   0.0000   0.4766
   0.600   0.5510   0.00453   0.00064  -0.1205  0.6082  0.5213  -0.6868   0.0000   0.4673
   0.800   0.5741   0.00453   0.00066  -0.1208  0.6071  0.5251  -0.6988   0.0000   0.4587
   1.000   0.5971   0.00453   0.00068  -0.1209  0.6054  0.5277  -0.7107   0.0000   0.4507
   1.200   0.6200   0.00455   0.00070  -0.1211  0.6022  0.5295  -0.7226   0.0000   0.4434
   1.400   0.6424   0.00459   0.00072  -0.1212  0.5951  0.5307  -0.7351   0.0000   0.4365
   1.600   0.6640   0.00469   0.00075  -0.1211  0.5832  0.5316  -0.7478   0.0000   0.4300
   1.800   0.6854   0.00480   0.00080  -0.1209  0.5616  0.5321  -0.7609   0.0000   0.4240
   2.000   0.7082   0.00481   0.00083  -0.1211  0.5592  0.5372  -0.7945   0.0000   0.4184
   2.200   0.7311   0.00482   0.00087  -0.1213  0.5573  0.5478  -0.8393   0.0000   0.4131
   2.400   0.7535   0.00483   0.00091  -0.1214  0.5521  0.5591  -0.8843   0.0000   0.4081
   2.600   0.7741   0.00498   0.00099  -0.1211  0.5305  0.5676  -0.9372   0.0000   0.4033
   2.800   0.7958   0.00506   0.00105  -0.1210  0.5124  0.5743  -0.9935   0.0000   0.3988
   3.000   0.8177   0.00513   0.00111  -0.1210  0.5030  0.5793  -1.0626   0.0000   0.3946
   3.200   0.8367   0.00542   0.00124  -0.1205  0.4612  0.5827  -1.1336   0.0000   0.3904
   3.400   0.8552   0.00576   0.00139  -0.1199  0.4161  0.5848  -1.2044   0.0000   0.3864
   3.600   0.8729   0.00617   0.00159  -0.1191  0.3638  0.5866  -1.2837   0.0000   0.3825
   3.800   0.8879   0.00679   0.00189  -0.1179  0.2911  0.5975  -1.3765   0.0000   0.3786
   4.000   0.9059   0.00717   0.00210  -0.1172  0.2461  0.6099  -1.5096   0.0000   0.3751
   4.200   0.9245   0.00749   0.00230  -0.1167  0.2123  0.6201  -1.7222   0.0000   0.3717
   4.400   0.9436   0.00777   0.00249  -0.1162  0.1820  0.6286  -1.9458   0.0000   0.3684
   4.600   0.9617   0.00813   0.00271  -0.1155  0.1476  0.6349  -2.1725   0.0000   0.3652
   4.800   0.9792   0.00854   0.00295  -0.1148  0.1126  0.6390  -2.4030   0.0000   0.3621
   5.000   0.9981   0.00883   0.00316  -0.1142  0.0889  0.6529  -2.6498   0.0000   0.3592
   5.200   1.0168   0.00911   0.00339  -0.1137  0.0674  0.6705  -2.9037   0.0000   0.3563
   5.400   1.0352   0.00942   0.00365  -0.1131  0.0509  0.6833  -3.1602   0.0000   0.3536
   5.600   1.0548   0.00964   0.00385  -0.1127  0.0415  0.6907  -3.4366   0.0000   0.3509
   5.800   1.0736   0.00992   0.00408  -0.1122  0.0302  0.7047  -3.7153   0.0000   0.3484
   6.000   1.0935   0.01009   0.00427  -0.1118  0.0257  0.7239  -4.0106   0.0000   0.3459
   6.200   1.1121   0.01036   0.00453  -0.1113  0.0192  0.7376  -4.3033   0.0000   0.3435
   6.400   1.1318   0.01056   0.00473  -0.1109  0.0143  0.7504  -4.6106   0.0000   0.3412
   6.600   1.1511   0.01075   0.00497  -0.1104  0.0122  0.7750  -4.9231   0.0000   0.3389
   6.800   1.1690   0.01105   0.00526  -0.1098  0.0078  0.7908  -5.2270   0.0000   0.3366
   7.000   1.1873   0.01129   0.00554  -0.1091  0.0043  0.8208  -5.5293   0.0000   0.3344
   7.200   1.2038   0.01166   0.00595  -0.1081  0.0017  0.8508  -5.7629   0.0000   0.3321
   7.400   1.2209   0.01182   0.00624  -0.1072  0.0016  0.9011  -6.1052   0.0000   0.3298
   7.600   1.2353   0.01192   0.00650  -0.1056  0.0014  1.0000  -6.4297   0.0000   0.3273
   7.800   1.2535   0.01221   0.00681  -0.1050  0.0014  1.0000  -6.7939   0.0000   0.3253
   8.000   1.2714   0.01252   0.00714  -0.1043  0.0013  1.0000  -7.1637   0.0000   0.3233
   8.200   1.2890   0.01284   0.00749  -0.1035  0.0012  1.0000  -7.5385   0.0000   0.3213
   8.400   1.3061   0.01318   0.00786  -0.1027  0.0012  1.0000  -7.9170   0.0000   0.3194
   8.600   1.3229   0.01354   0.00824  -0.1018  0.0012  1.0000  -8.2992   0.0000   0.3174
   8.800   1.3392   0.01391   0.00865  -0.1008  0.0011  1.0000  -8.6844   0.0000   0.3155
   9.000   1.3550   0.01431   0.00914  -0.0998  0.0011  1.0000  -9.0655   0.0000   0.3136
   9.200   1.3703   0.01473   0.00959  -0.0987  0.0011  1.0000  -9.4540   0.0000   0.3117
   9.400   1.3850   0.01516   0.01006  -0.0974  0.0010  1.0000  -9.8429   0.0000   0.3098
   9.600   1.3980   0.01560   0.01054  -0.0959  0.0010  1.0000  -10.2212   0.0000   0.3077
   9.800   1.4099   0.01606   0.01104  -0.0941  0.0010  1.0000  -10.5934   0.0000   0.3056
  10.000   1.4214   0.01654   0.01157  -0.0923  0.0010  1.0000  -10.9675   0.0000   0.3035
  10.200   1.4322   0.01705   0.01212  -0.0905  0.0010  1.0000  -11.3392   0.0000   0.3015
  10.400   1.4428   0.01758   0.01270  -0.0886  0.0009  1.0000  -11.7134   0.0000   0.2994
  10.600   1.4533   0.01814   0.01331  -0.0868  0.0009  1.0000  -12.0922   0.0000   0.2974
  10.800   1.4629   0.01875   0.01396  -0.0849  0.0009  1.0000  -12.4646   0.0000   0.2954
  11.000   1.4722   0.01938   0.01465  -0.0830  0.0009  1.0000  -12.8368   0.0000   0.2935
  11.200   1.4814   0.02005   0.01538  -0.0812  0.0009  1.0000  -13.2113   0.0000   0.2916
  11.400   1.4892   0.02079   0.01617  -0.0792  0.0008  1.0000  -13.5726   0.0000   0.2897
  11.600   1.4971   0.02157   0.01701  -0.0773  0.0008  1.0000  -13.9359   0.0000   0.2878
  11.800   1.5042   0.02243   0.01793  -0.0754  0.0008  1.0000  -14.2885   0.0000   0.2860
  12.000   1.5098   0.02336   0.01892  -0.0733  0.0008  1.0000  -14.6216   0.0000   0.2841
  12.200   1.5151   0.02438   0.02002  -0.0714  0.0007  1.0000  -14.9468   0.0000   0.2823
  12.400   1.5183   0.02556   0.02128  -0.0693  0.0007  1.0000  -15.2380   0.0000   0.2805
  12.600   1.5211   0.02690   0.02271  -0.0673  0.0007  1.0000  -15.5076   0.0000   0.2788
  12.800   1.5193   0.02861   0.02454  -0.0650  0.0006  1.0000  -15.6864   0.0000   0.2770
  13.000   1.5013   0.03196   0.02816  -0.0615  0.0006  1.0000  -15.4510   0.0000   0.2748
  13.200   1.4548   0.03850   0.03517  -0.0565  0.0005  1.0000  -14.5457   0.0000   0.2724
  13.400   1.4590   0.03995   0.03667  -0.0556  0.0005  1.0000  -14.8963   0.0000   0.2713
  13.600   1.4627   0.04151   0.03829  -0.0548  0.0005  1.0000  -15.2372   0.0000   0.2703
  13.800   1.4626   0.04344   0.04029  -0.0540  0.0005  1.0000  -15.5167   0.0000   0.2694
  14.000   1.4650   0.04523   0.04218  -0.0534  0.0005  1.0000  -15.8385   0.0000   0.2685
  14.200   1.4656   0.04725   0.04426  -0.0528  0.0005  1.0000  -16.1288   0.0000   0.2678
  14.400   1.4632   0.04963   0.04672  -0.0524  0.0005  1.0000  -16.3662   0.0000   0.2671
  14.600   1.4634   0.05182   0.04898  -0.0521  0.0005  1.0000  -16.6473   0.0000   0.2665
  14.800   1.4596   0.05453   0.05177  -0.0520  0.0005  1.0000  -16.8546   0.0000   0.2661
  15.000   1.4557   0.05732   0.05464  -0.0520  0.0005  1.0000  -17.0577   0.0000   0.2658
  15.200   1.4530   0.05996   0.05736  -0.0521  0.0005  1.0000  -17.2785   0.0000   0.2655
  15.400   1.4438   0.06364   0.06113  -0.0526  0.0005  1.0000  -17.3744   0.0000   0.2657
  15.600   1.4393   0.06689   0.06447  -0.0532  0.0005  1.0000  -17.5517   0.0000   0.2657
  15.800   1.4339   0.07044   0.06811  -0.0540  0.0005  1.0000  -17.7041   0.0000   0.2660
  16.000   1.4227   0.07511   0.07287  -0.0555  0.0005  1.0000  -17.7319   0.0000   0.2669
  16.200   1.4164   0.07910   0.07695  -0.0567  0.0005  1.0000  -17.8510   0.0000   0.2675
  16.400   1.4018   0.08478   0.08274  -0.0591  0.0005  1.0000  -17.7830   0.0000   0.2691
  16.600   1.3931   0.08954   0.08761  -0.0610  0.0005  1.0000  -17.8248   0.0000   0.2703
  16.800   1.3754   0.09629   0.09447  -0.0644  0.0005  1.0000  -17.6487   0.0000   0.2729
  17.000   1.3571   0.10348   0.10178  -0.0683  0.0005  1.0000  -17.4272   0.0000   0.2760
  17.200   1.3376   0.11124   0.10967  -0.0728  0.0005  1.0000  -17.1380   0.0000   0.2797
  17.400   1.3098   0.12134   0.11992  -0.0790  0.0005  1.0000  -16.5809   0.0000   0.2853
  17.600   1.2761   0.13342   0.13217  -0.0867  0.0005  1.0000  -15.7689   0.0000   0.2927


